                                  MODFLOW-NWT-SWR1 
      U.S. GEOLOGICAL SURVEY MODULAR FINITE-DIFFERENCE GROUNDWATER-FLOW MODEL
                            VERSION 1.2.0 03/01/2020
                    BASED ON MODFLOW-2005 VERSION 1.12.00 02/03/2017

 LIST FILE: ./output/Agwater1_high.lst
                         UNIT    9

 OPENING ./input/Agwater1.ba6
 FILE TYPE:BAS6   UNIT   75   STATUS:OLD    
 FORMAT:FORMATTED              ACCESS:SEQUENTIAL          

 OPENING ./input/Agwater1.upw
 FILE TYPE:UPW   UNIT    7   STATUS:OLD    
 FORMAT:FORMATTED              ACCESS:SEQUENTIAL          

 OPENING ./input/Agwater1.dis
 FILE TYPE:DIS   UNIT    8   STATUS:OLD    
 FORMAT:FORMATTED              ACCESS:SEQUENTIAL          

 OPENING ./input/Agwater1.nwt
 FILE TYPE:NWT   UNIT   13   STATUS:OLD    
 FORMAT:FORMATTED              ACCESS:SEQUENTIAL          

 OPENING ./input/Agwater1.oc
 FILE TYPE:OC   UNIT   14   STATUS:OLD    
 FORMAT:FORMATTED              ACCESS:SEQUENTIAL          

 OPENING ./input/Agwater1.sfr
 FILE TYPE:SFR   UNIT   15   STATUS:OLD    
 FORMAT:FORMATTED              ACCESS:SEQUENTIAL          

 OPENING ./input/Agwater1.ghb
 FILE TYPE:GHB   UNIT   17   STATUS:OLD    
 FORMAT:FORMATTED              ACCESS:SEQUENTIAL          

 OPENING ./input/Agwater1_high.uzf
 FILE TYPE:UZF   UNIT   19   STATUS:OLD    
 FORMAT:FORMATTED              ACCESS:SEQUENTIAL          

 OPENING ./input/Agwater1.gag
 FILE TYPE:GAGE   UNIT   32   STATUS:OLD    
 FORMAT:FORMATTED              ACCESS:SEQUENTIAL          

 OPENING ./input/seg1.tab
 FILE TYPE:DATA   UNIT   55   STATUS:UNKNOWN
 FORMAT:FORMATTED              ACCESS:SEQUENTIAL          

 OPENING ./input/seg9.tab
 FILE TYPE:DATA   UNIT   56   STATUS:UNKNOWN
 FORMAT:FORMATTED              ACCESS:SEQUENTIAL          

 OPENING ./input/Agwater1.ag
 FILE TYPE:AG   UNIT   57   STATUS:OLD    
 FORMAT:FORMATTED              ACCESS:SEQUENTIAL          

 OPENING ./output/EP1b_Agwater1_high.hed
 FILE TYPE:DATA   UNIT   62   STATUS:UNKNOWN
 FORMAT:FORMATTED              ACCESS:SEQUENTIAL          

 OPENING ./output/Agwater1GW_high.ts5
 FILE TYPE:DATA   UNIT  105   STATUS:UNKNOWN
 FORMAT:FORMATTED              ACCESS:SEQUENTIAL          

 OPENING ./output/Agwater1GW_high_ET.ts5
 FILE TYPE:DATA   UNIT  106   STATUS:UNKNOWN
 FORMAT:FORMATTED              ACCESS:SEQUENTIAL          

 OPENING ./output/Agwater1GW_high_ET.all
 FILE TYPE:DATA   UNIT  107   STATUS:UNKNOWN
 FORMAT:FORMATTED              ACCESS:SEQUENTIAL          

 OPENING ./output/Agwater1GW_high.all
 FILE TYPE:DATA   UNIT  108   STATUS:UNKNOWN
 FORMAT:FORMATTED              ACCESS:SEQUENTIAL          

 OPENING ./output/Agwater1_high.uzfot
 FILE TYPE:DATA(BINARY)   UNIT   61   STATUS:UNKNOWN
 FORMAT:BINARY                 ACCESS:SEQUENTIAL          

 OPENING ./output/Agwater1cbc_high.unf
 FILE TYPE:DATA(BINARY)   UNIT  102   STATUS:UNKNOWN
 FORMAT:BINARY                 ACCESS:SEQUENTIAL          

 OPENING ./output/Agwater1_high.uzf1
 FILE TYPE:DATA   UNIT   65   STATUS:UNKNOWN
 FORMAT:FORMATTED              ACCESS:SEQUENTIAL          

 OPENING ./output/Agwater1_high.uzf2
 FILE TYPE:DATA   UNIT   66   STATUS:UNKNOWN
 FORMAT:FORMATTED              ACCESS:SEQUENTIAL          

 OPENING ./output/Agwater1_high.uzf3
 FILE TYPE:DATA   UNIT   67   STATUS:UNKNOWN
 FORMAT:FORMATTED              ACCESS:SEQUENTIAL          

 OPENING ./output/Agwater1_high.uzf4
 FILE TYPE:DATA   UNIT   68   STATUS:UNKNOWN
 FORMAT:FORMATTED              ACCESS:SEQUENTIAL          

 OPENING ./output/Agwater1_high.flw
 FILE TYPE:DATA   UNIT   81   STATUS:UNKNOWN
 FORMAT:FORMATTED              ACCESS:SEQUENTIAL          

 OPENING ./output/Agwater1_high.sg1
 FILE TYPE:DATA   UNIT   83   STATUS:UNKNOWN
 FORMAT:FORMATTED              ACCESS:SEQUENTIAL          

 OPENING ./output/Agwater1_high.sg2
 FILE TYPE:DATA   UNIT   84   STATUS:UNKNOWN
 FORMAT:FORMATTED              ACCESS:SEQUENTIAL          

 OPENING ./output/Agwater1_high.sg3
 FILE TYPE:DATA   UNIT   85   STATUS:UNKNOWN
 FORMAT:FORMATTED              ACCESS:SEQUENTIAL          

 OPENING ./output/Agwater1_high.sg4
 FILE TYPE:DATA   UNIT   86   STATUS:UNKNOWN
 FORMAT:FORMATTED              ACCESS:SEQUENTIAL          

 OPENING ./output/Agwater1_high.sg5
 FILE TYPE:DATA   UNIT   87   STATUS:UNKNOWN
 FORMAT:FORMATTED              ACCESS:SEQUENTIAL          

 OPENING ./output/Agwater1_high.sg6
 FILE TYPE:DATA   UNIT   88   STATUS:UNKNOWN
 FORMAT:FORMATTED              ACCESS:SEQUENTIAL          

 OPENING ./output/Agwater1_high.sg7
 FILE TYPE:DATA   UNIT   89   STATUS:UNKNOWN
 FORMAT:FORMATTED              ACCESS:SEQUENTIAL          

 OPENING ./output/Agwater1_high.sg8
 FILE TYPE:DATA   UNIT   90   STATUS:UNKNOWN
 FORMAT:FORMATTED              ACCESS:SEQUENTIAL          

 BAS -- BASIC PACKAGE, VERSION 1.1.4, 4/01/2018 INPUT READ FROM UNIT   75
 
 MODFLOW was compiled using mixed precision
 Precision of REAL variables:           6
 Precision of DOUBLE PRECISION variables:          15

 DISCRETIZATION INPUT DATA READ FROM UNIT    8
 #Test problem 2-- Discretization input
 #Example problem using the UZF1 Package
    1 LAYERS        15 ROWS        10 COLUMNS
   49 STRESS PERIOD(S) IN SIMULATION
 MODEL TIME UNIT IS SECONDS
 MODEL LENGTH UNIT IS FEET
  Confining bed flag for each layer:
   0

                     DELR =   5000.00    

                     DELC =   5000.00    



           TOP ELEVATION OF LAYER 1
 READING ON UNIT    8 WITH FORMAT: (10F7.0)            

            1           2           3           4           5           6           7           8           9          10
 ........................................................................................................................
   1    1105.       1105.       0.000       0.000       0.000       0.000       0.000       0.000       0.000       0.000    
   2    1105.       1095.       1105.       0.000       0.000       1100.       1100.       1110.       0.000       0.000    
   3    0.000       1100.       1085.       1080.       1078.       1076.       1073.       1090.       0.000       0.000    
   4    1110.       1100.       1090.       1085.       1076.       1080.       1080.       1070.       1100.       0.000    
   5    1110.       1100.       1085.       1080.       1078.       1074.       1077.       1066.       1075.       1080.    
   6    1105.       1095.       1080.       1077.       1073.       1069.       1070.       1063.       1085.       1095.    
   7    1105.       1090.       1075.       1072.       1070.       1065.       1065.       1069.       1090.       0.000    
   8    0.000       1080.       1070.       1068.       1063.       1060.       1063.       1067.       1090.       0.000    
   9    0.000       1075.       1065.       1062.       1058.       1052.       1055.       1065.       1090.       0.000    
  10    0.000       1070.       1060.       1055.       1046.       1046.       1044.       1060.       1088.       1100.    
  11    0.000       1055.       1050.       1045.       1041.       1042.       1040.       1050.       1075.       0.000    
  12    1027.       1028.       1028.       1032.       1032.       1033.       1032.       1040.       1060.       0.000    
  13    997.0       1004.       1008.       1014.       1020.       1027.       1032.       1038.       1050.       0.000    
  14    0.000       1030.       1040.       1045.       1050.       1050.       1050.       1050.       1044.       0.000    
  15    0.000       0.000       1080.       1080.       1080.       1080.       0.000       0.000       0.000       0.000    



             MODEL LAYER BOTTOM EL. FOR LAYER   1
 READING ON UNIT    8 WITH FORMAT: (10F7.0)            

            1           2           3           4           5           6           7           8           9          10
 ........................................................................................................................
   1    1000.       1000.       0.000       0.000       0.000       0.000       0.000       0.000       0.000       0.000    
   2    1000.       900.0       900.0       0.000       0.000       950.0       950.0       950.0       0.000       0.000    
   3    0.000       850.0       670.0       680.0       680.0       770.0       770.0       890.0       0.000       0.000    
   4    925.0       850.0       650.0       650.0       650.0       680.0       740.0       850.0       950.0       0.000    
   5    925.0       800.0       650.0       600.0       600.0       600.0       650.0       720.0       850.0       950.0    
   6    925.0       800.0       650.0       600.0       550.0       600.0       650.0       720.0       850.0       970.0    
   7    925.0       800.0       650.0       600.0       550.0       600.0       650.0       720.0       950.0       0.000    
   8    0.000       850.0       700.0       650.0       570.0       600.0       700.0       850.0       950.0       0.000    
   9    0.000       850.0       700.0       650.0       540.0       580.0       700.0       850.0       950.0       0.000    
  10    0.000       850.0       700.0       630.0       530.0       580.0       650.0       800.0       900.0       950.0    
  11    0.000       850.0       700.0       620.0       580.0       620.0       700.0       800.0       900.0       0.000    
  12    900.0       830.0       710.0       640.0       600.0       650.0       700.0       800.0       900.0       0.000    
  13    900.0       810.0       750.0       700.0       650.0       700.0       750.0       800.0       900.0       0.000    
  14    0.000       950.0       850.0       850.0       850.0       850.0       850.0       850.0       850.0       0.000    
  15    0.000       0.000       950.0       950.0       950.0       950.0       0.000       0.000       0.000       0.000    


 STRESS PERIOD     LENGTH       TIME STEPS     MULTIPLIER FOR DELT    SS FLAG
 ----------------------------------------------------------------------------
        1         86400.00          1                    1.000         SS
        2         2630000.         30                    1.000         TR
        3         2630000.         30                    1.000         TR
        4         2630000.         30                    1.000         TR
        5         2630000.         30                    1.000         TR
        6         2630000.         30                    1.000         TR
        7         2630000.         30                    1.000         TR
        8         2630000.         30                    1.000         TR
        9         2630000.         30                    1.000         TR
       10         2630000.         30                    1.000         TR
       11         2630000.         30                    1.000         TR
       12         2630000.         30                    1.000         TR
       13         2630000.         30                    1.000         TR
       14         2630000.         30                    1.000         TR
       15         2630000.         30                    1.000         TR
       16         2630000.         30                    1.000         TR
       17         2630000.         30                    1.000         TR
       18         2630000.         30                    1.000         TR
       19         2630000.         30                    1.000         TR
       20         2630000.         30                    1.000         TR
       21         2630000.         30                    1.000         TR
       22         2630000.         30                    1.000         TR
       23         2630000.         30                    1.000         TR
       24         2630000.         30                    1.000         TR
       25         2630000.         30                    1.000         TR
       26         2630000.         30                    1.000         TR
       27         2630000.         30                    1.000         TR
       28         2630000.         30                    1.000         TR
       29         2630000.         30                    1.000         TR
       30         2630000.         30                    1.000         TR
       31         2630000.         30                    1.000         TR
       32         2630000.         30                    1.000         TR
       33         2630000.         30                    1.000         TR
       34         2630000.         30                    1.000         TR
       35         2630000.         30                    1.000         TR
       36         2630000.         30                    1.000         TR
       37         2630000.         30                    1.000         TR
       38         2630000.         30                    1.000         TR
       39         2630000.         30                    1.000         TR
       40         2630000.         30                    1.000         TR
       41         2630000.         30                    1.000         TR
       42         2630000.         30                    1.000         TR
       43         2630000.         30                    1.000         TR
       44         2630000.         30                    1.000         TR
       45         2630000.         30                    1.000         TR
       46         2630000.         30                    1.000         TR
       47         2630000.         30                    1.000         TR
       48         2630000.         30                    1.000         TR
       49         2630000.         30                    1.000         TR

 COMBINED STEADY-STATE AND TRANSIENT SIMULATION



 
 #Test Simulation 2-- Example problem using the UZF1 Package                     
 #Modified from example Problem 1 of SFR1 documentation report                   
 THE FREE FORMAT OPTION HAS BEEN SELECTED



                     BOUNDARY ARRAY FOR LAYER   1
 READING ON UNIT   75 WITH FORMAT: (20I4)              

                1           2           3           4           5           6           7           8           9          10
 ............................................................................................................................
   1            1           1           0           0           0           0           0           0           0           0
   2            1           1           1           0           0           1           1           1           0           0
   3            0           1           1           1           1           1           1           1           0           0
   4            1           1           1           1           1           1           1           1           1           0
   5            1           1           1           1           1           1           1           1           1           1
   6            1           1           1           1           1           1           1           1           1           1
   7            1           1           1           1           1           1           1           1           1           0
   8            0           1           1           1           1           1           1           1           1           0
   9            0           1           1           1           1           1           1           1           1           0
  10            0           1           1           1           1           1           1           1           1           1
  11            0           1           1           1           1           1           1           1           1           0
  12            1           1           1           1           1           1           1           1           1           0
  13            1           1           1           1           1           1           1           1           1           0
  14            0           1           1           1           1           1           1           1           1           0
  15            0           0           1           1           1           1           0           0           0           0

 AQUIFER HEAD WILL BE SET TO   6999.0     AT ALL NO-FLOW NODES (IBOUND=0).



                       INITIAL HEAD FOR LAYER   1
 READING ON UNIT   75 WITH FORMAT: (10F8.0)            

            1           2           3           4           5           6           7           8           9          10
 ........................................................................................................................
   1    1093.       1089.       6999.       6999.       6999.       6999.       6999.       6999.       6999.       6999.    
   2    1090.       1087.       1081.       6999.       6999.       1072.       1071.       1071.       6999.       6999.    
   3    6999.       1079.       1078.       1074.       1072.       1071.       1069.       1068.       6999.       6999.    
   4    1069.       1071.       1070.       1067.       1065.       1064.       1064.       1066.       1066.       6999.    
   5    1065.       1064.       1063.       1062.       1061.       1061.       1060.       1062.       1066.       1068.    
   6    1060.       1058.       1057.       1056.       1056.       1057.       1057.       1059.       1062.       1066.    
   7    1056.       1053.       1052.       1051.       1051.       1052.       1053.       1055.       1056.       6999.    
   8    6999.       1046.       1046.       1046.       1046.       1046.       1048.       1050.       1050.       6999.    
   9    6999.       1039.       1039.       1039.       1040.       1041.       1042.       1043.       1044.       6999.    
  10    6999.       1031.       1032.       1033.       1034.       1035.       1037.       1038.       1039.       1042.    
  11    6999.       1021.       1023.       1027.       1029.       1030.       1032.       1034.       1036.       6999.    
  12    1001.       1009.       1015.       1020.       1023.       1026.       1029.       1030.       1034.       6999.    
  13    994.5      1000.0       1007.       1013.       1019.       1024.       1029.       1034.       1036.       6999.    
  14    6999.       1004.       1009.       1014.       1019.       1024.       1029.       1035.       1039.       6999.    
  15    6999.       6999.       1012.       1015.       1019.       1022.       6999.       6999.       6999.       6999.    

 OUTPUT CONTROL IS SPECIFIED ONLY AT TIME STEPS FOR WHICH OUTPUT IS DESIRED
 HEADS WILL BE SAVED WITH FORMAT: (10F10.3)           
 SAVED HEADS WILL BE LABELED
 COMPACT CELL-BY-CELL BUDGET FILES WILL BE WRITTEN
 HEAD PRINT FORMAT CODE IS   4    DRAWDOWN PRINT FORMAT CODE IS   0
 HEADS WILL BE SAVED ON UNIT   62    DRAWDOWNS WILL BE SAVED ON UNIT    0
 # NWT Input File
 # Test Problem 3 for MODFLOW-NWT
 #HEADTOL  FLUXTOL MAXITEROUT THICKFACT LINMETH IPRNWT IBOTAV OPTIONS DBDREDUCE DBDINCREASE DBDGAMMA MOMFACT BACKFLAG MAXBACKITER BACKTOL BACKREDUCE

 NWT1 -- Newton Solver, VERSION 1.1.4, 4/01/2018
         INPUT READ FROM UNIT 13

 SPECIFIED OPTION:
 SOLVER INPUT VALUES ARE SPECIFIED BY USER
 ***XMD linear solver will be used***
 
   CONVERGENCE CRITERION OF   0.100000E-03 FOR HEAD SOLUTION
   AND A TOLERANCE OF   0.100000E+03 FOR FLOW SOLUTION AND 
   A MAXIMUM OF   500 OUTER ITERATIONS. 


   D-B-D REDUCTION FACTOR OF    0.970000E+00 AND 
   A D-B-D INCREASE FACTOR OF    0.100000E-04 AND 
   A D-B-D RELAXATION OF    0.000000E+00 AND 
   A MOMENTUM FACTOR OF    0.100000E+00 .


 ***BACKTRACKING IS INACTIVE***
 XMD -- LINEAR SOLUTION BY XMD PACKAGE VERSION 1.30
     BY MOTOMU IBARAKI, OHIO STATE UNIVERSITY, COLOMBUS, OH
                 INPUT READ FROM UNIT 13
 ACCELERATION METHOD                    (IACL) =         1
 NODE ORDERING FLAG                   (NORDER) =         0
 LEVEL OF FILL                         (LEVEL) =         7
 MAXIMUM NUMBER OF ORTHOGONALIZATIONS  (NORTH) =         7
 INDEX FOR USING REDUCED SYSTEM      (IREDSYS) =         1
 RESID. REDUCTION CONVERGE CRITERION  (RRCTOL) =  0.000000E+00
 INDEX FOR USING DROP TOLERANCE     (IDROPTOL) =         1
 DROP TOLERANCE VALUE                  (EPSRN) =  0.500000E-02
 CONVERGENCE CRITERIA OF           (HCLOSEXMD) =  0.100000E-03
 MAX. NUMBER OF LINEAR ITERATIONS  (MXITERXMD) =        50


 UPW1 -- UPSTREAM WEIGHTING FLOW PACKAGE, VERSION 1.1.4, 4/01/2018
         INPUT READ FROM UNIT  7

 #Layer-Property Flow Package input for test simulation 2
 CELL-BY-CELL FLOWS WILL BE SAVED ON UNIT  102
 No named parameters

   LAYER FLAGS:
 LAYER       LAYTYP          LAYAVG    CHANI           LAYVKA           LAYWET
 ---------------------------------------------------------------------------
    1             1             0     1.000E+00             0             0

   INTERPRETATION OF LAYER FLAGS:
                        INTERBLOCK     HORIZONTAL    DATA IN
         LAYER TYPE   TRANSMISSIVITY   ANISOTROPY   ARRAY VKA   WETTABILITY
 LAYER   (LAYTYP)        (LAYAVG)      (CHANI)     (LAYVKA)       (LAYWET)
 ---------------------------------------------------------------------------
    1   CONVERTIBLE      HARMONIC     1.000E+00    VERTICAL K  NON-WETTABLE



              HYD. COND. ALONG ROWS FOR LAYER   1
 READING ON UNIT    7 WITH FORMAT: (10F5.0)            

            1           2           3           4           5           6           7           8           9          10
 ........................................................................................................................
   1   2.0000E-03  2.0000E-03   0.000       0.000       0.000       0.000       0.000       0.000       0.000       0.000    
   2   4.0000E-04  2.0000E-03  2.0000E-03   0.000       0.000      4.0000E-04  4.0000E-04  4.0000E-04   0.000       0.000    
   3    0.000      4.0000E-04  2.0000E-03  2.0000E-03  4.0000E-04  4.0000E-04  4.0000E-04  4.0000E-04   0.000       0.000    
   4   4.0000E-04  4.0000E-04  4.0000E-04  2.0000E-03  2.0000E-03  2.0000E-03  4.0000E-04  4.0000E-04  4.0000E-04   0.000    
   5   4.0000E-04  4.0000E-04  4.0000E-04  2.0000E-03  2.0000E-03  2.0000E-03  2.0000E-03  2.0000E-03  2.0000E-03  2.0000E-03
   6   4.0000E-04  4.0000E-04  4.0000E-04  2.0000E-03  2.0000E-03  2.0000E-03  2.0000E-03  2.0000E-03  4.0000E-04  4.0000E-04
   7   4.0000E-04  4.0000E-04  4.0000E-04  2.0000E-03  2.0000E-03  2.0000E-03  2.0000E-03  2.0000E-03  4.0000E-04   0.000    
   8    0.000      4.0000E-04  4.0000E-04  2.0000E-03  2.0000E-03  2.0000E-03  2.0000E-03  4.0000E-04  4.0000E-04   0.000    
   9    0.000      4.0000E-04  4.0000E-04  2.0000E-03  2.0000E-03  2.0000E-03  2.0000E-03  4.0000E-04  4.0000E-04   0.000    
  10    0.000      4.0000E-04  4.0000E-04  2.0000E-03  2.0000E-03  2.0000E-03  2.0000E-03  4.0000E-04  4.0000E-04  4.0000E-04
  11    0.000      4.0000E-04  4.0000E-04  2.0000E-03  2.0000E-03  2.0000E-03  2.0000E-03  4.0000E-04  4.0000E-04   0.000    
  12   4.0000E-04  4.0000E-04  2.0000E-03  2.0000E-03  2.0000E-03  2.0000E-03  2.0000E-03  4.0000E-04  4.0000E-04   0.000    
  13   2.0000E-03  2.0000E-03  2.0000E-03  2.0000E-03  2.0000E-03  2.0000E-03  2.0000E-03  2.0000E-03  2.0000E-03   0.000    
  14    0.000      4.0000E-04  4.0000E-04  4.0000E-04  4.0000E-04  4.0000E-04  4.0000E-04  4.0000E-04  2.0000E-03   0.000    
  15    0.000       0.000      4.0000E-04  4.0000E-04  4.0000E-04  4.0000E-04   0.000       0.000       0.000       0.000    

      VERTICAL HYD. COND. =  1.000000E-06 FOR LAYER   1

         SPECIFIC STORAGE =  1.000000E-06 FOR LAYER   1



                     SPECIFIC YIELD FOR LAYER   1
 READING ON UNIT    7 WITH FORMAT: (10F5.0)            

            1           2           3           4           5           6           7           8           9          10
 ........................................................................................................................
   1   0.2000      0.2000       0.000       0.000       0.000       0.000       0.000       0.000       0.000       0.000    
   2   0.1000      0.2000      0.2000       0.000       0.000      0.1000      0.1000      0.1000       0.000       0.000    
   3    0.000      0.1000      0.2000      0.2000      0.1000      0.1000      0.1000      0.1000       0.000       0.000    
   4   0.1000      0.1000      0.1000      0.2000      0.2000      0.2000      0.1000      0.1000      0.1000       0.000    
   5   0.1000      0.1000      0.1000      0.2000      0.2000      0.2000      0.2000      0.2000      0.2000      0.2000    
   6   0.1000      0.1000      0.1000      0.2000      0.2000      0.2000      0.2000      0.2000      0.1000      0.1000    
   7   0.1000      0.1000      0.1000      0.2000      0.2000      0.2000      0.2000      0.2000      0.1000       0.000    
   8    0.000      0.1000      0.1000      0.2000      0.2000      0.2000      0.2000      0.1000      0.1000       0.000    
   9    0.000      0.1000      0.1000      0.2000      0.2000      0.2000      0.2000      0.1000      0.1000       0.000    
  10    0.000      0.1000      0.1000      0.2000      0.2000      0.2000      0.2000      0.1000      0.1000      0.1000    
  11    0.000      0.1000      0.1000      0.2000      0.2000      0.2000      0.2000      0.1000      0.1000       0.000    
  12   0.1000      0.1000      0.2000      0.2000      0.2000      0.2000      0.2000      0.1000      0.1000       0.000    
  13   0.2000      0.2000      0.2000      0.2000      0.2000      0.2000      0.2000      0.2000      0.2000       0.000    
  14    0.000      0.1000      0.1000      0.1000      0.1000      0.1000      0.1000      0.1000      0.2000       0.000    
  15    0.000       0.000      0.1000      0.1000      0.1000      0.1000       0.000       0.000       0.000       0.000    

 GHB -- GENERAL-HEAD BOUNDARY PACKAGE, VERSION 7, 5/2/2005
         INPUT READ FROM UNIT   17
 No named parameters
 MAXIMUM OF      2 ACTIVE GHB CELLS AT ONE TIME
 CELL-BY-CELL FLOWS WILL BE PRINTED WHEN ICBCFL NOT 0


     0 GHB parameters

 SFR7 -- STREAMFLOW ROUTING PACKAGE, VERSION 1.0.5, 2012-04-05
         INPUT READ FROM UNIT  15
 #SFR2 Package input for Testing supplimental pumping and irrigation
 No named parameters

 PROCESSING SFR2 OPTIONS
 
          1 Specified inflow files will be read with a maximum of        759 row entries per file
 
Stream loss will be calculated as a factor of the streambed hydraulic conductivity. Multiplication factor is equal to     0.1000000015E+00

 END PROCESSING SFR2 OPTIONS
 


 NUMBER OF STREAM REACHES IS   36

 NUMBER OF STREAM SEGMENTS IS    8

 NUMBER OF STREAM PARAMETERS IS    0

 NUMBER OF STREAM SEGMENTS DEFINED USING PARAMETERS IS              0

 MAXIMUM ERROR FOR STREAM LEAKAGE RATES IS  1.00E-06

 CONSTANT FOR MANNINGS EQUATION IS  1.4860E+00



 STREAM OUTPUT WILL BE WRITTEN TO FILE ON UNIT   81


   STREAM NETWORK DESCRIPTION: 

   LAYER    ROW    COL   SEGMENT   REACH     LENGTH
                          NUMBER   NUMBER    IN CELL        
   --------------------------------------------------
      1      1      1       1        1    4.5000E+03
      1      2      2       1        2    7.0000E+03
      1      3      3       1        3    6.0000E+03
      1      3      4       1        4    5.5500E+03
      1      4      5       2        1    6.5000E+03
      1      5      6       2        2    5.0000E+03
      1      6      6       2        3    5.0000E+03
      1      7      6       2        4    5.0000E+03
      1      8      6       2        5    5.0000E+03
      1      3      5       3        1    5.0000E+03
      1      3      6       3        2    5.0000E+03
      1      3      7       3        3    4.5000E+03
      1      4      8       3        4    6.0000E+03
      1      5      8       3        5    5.0000E+03
      1      6      8       3        6    2.0000E+03
      1      5     10       4        1    2.5000E+03
      1      5      9       4        2    5.0000E+03
      1      6      8       4        3    3.5000E+03
      1      6      8       5        1    4.0000E+03
      1      7      7       5        2    5.0000E+03
      1      8      7       5        3    3.5000E+03
      1      8      6       5        4    2.5000E+03
      1      9      6       6        1    5.0000E+03
      1     10      7       6        2    5.0000E+03
      1     11      7       6        3    5.0000E+03
      1     12      7       6        4    5.0000E+03
      1     13      7       6        5    2.0000E+03
      1     14      9       7        1    5.0000E+03
      1     13      8       7        2    5.5000E+03
      1     13      7       7        3    5.0000E+03
      1     13      6       8        1    5.0000E+03
      1     13      5       8        2    5.0000E+03
      1     13      4       8        3    5.0000E+03
      1     13      3       8        4    5.0000E+03
      1     13      2       8        5    5.0000E+03
      1     13      1       8        6    3.0000E+03




 UZF1 -- UNSATURATED FLOW PACKAGE, VERSION 1.5, 09/10/2019
         INPUT READ FROM UNIT 19
 #UZF Package input for test simulation 2
 No named parameters

 PROCESSING UZF OPTIONS
 
 
 INITIAL WATER CONTENT (THTI) WILL BE 
READ FOR THE FIRST SS OR TR STRESS PERIOD
 
 
 RESIDUAL WATER CONTENT (THTR) WILL BE 
READ AND USED FOR THE FIRST TRANSIENT STRESS 
PERIOD
 
 
AIR ENTRY PRESSURE AND ROOT PRESSURE WILL BE 
SPECIFIED BY USER AND UZ ET WILL BE SIMULATED 
AS PRESSURE-HEAD DEPENDENT
 
 
INFILTRATION WILL BE REJECTED USING 
LAND SURFACE K
 
 
HYDRAULIC CONDUCTIVITY OF LAND SURFACE 
WILL BE READ
 

 END PROCESSING UZF OPTIONS



            AREAL EXTENT OF UZ FLOW
 READING ON UNIT   19 WITH FORMAT: (20I4)              

                1           2           3           4           5           6           7           8           9          10
 ............................................................................................................................
   1            1           1           0           0           0           0           0           0           0           0
   2            1           1           1           0           0           1           1           1           0           0
   3            0           1           1           1           1           1           1           1           0           0
   4            1           1           1           1           1           1           1           1           1           0
   5            1           1           1           1           1           1           1           1           1           1
   6            1           1           1           1           1           1           1           1           1           1
   7            1           1           1           1           1           1           1           1           1           0
   8            0           1           1           1           1           1           1           1           1           0
   9            0           1           1           1           1           1           1           1           1           0
  10            0           1           1           1           1           1           1           1           1           1
  11            0           1           1           1           1           1           1           1           1           0
  12            1           1           1           1           1           1           1           1           1           0
  13            1           1           1           1           1           1           1           1           1           0
  14            0           1           1           1           1           1           1           1           1           0
  15            0           0           1           1           1           1           0           0           0           0
 OPTION 1 -- RECHARGE IN UZF TO TOP LAYER ONLY 



            ROUTING OVERLAND RUNOFF
 READING ON UNIT   19 WITH FORMAT: (20I4)              

                1           2           3           4           5           6           7           8           9          10
 ............................................................................................................................
   1            1           1           0           0           0           0           0           0           0           0
   2            1           1           1           0           0           3           3           3           0           0
   3            0           1           1           1           3           3           3           3           0           0
   4            8           8           2           2           2           2           2           3           3           0
   5            8           8           8           8           2           2           2           3           4           4
   6            8           8           8           8           8           2           2           4           4           4
   7            8           8           8           8           8           2           5           5           5           0
   8            0           8           8           8           8           2           5           5           5           0
   9            0           8           8           8           8           6           6           6           6           0
  10            0           8           8           8           8           6           6           6           6           6
  11            0           8           8           8           8           8           6           6           7           0
  12            8           8           8           8           8           8           6           7           7           0
  13            8           8           8           8           8           8           7           7           7           0
  14            0           8           8           8           8           8           7           7           7           0
  15            0           0           8           8           8           8           0           0           0           0



               SATURATED VERTICAL K
 READING ON UNIT   19 WITH FORMAT: (10F4.0)            

            1           2           3           4           5           6           7           8           9          10
 ........................................................................................................................
   1   1.0000E-04  1.0000E-04   0.000       0.000       0.000       0.000       0.000       0.000       0.000       0.000    
   2   1.0000E-04  1.0000E-04  1.0000E-04   0.000       0.000      1.0000E-04  1.0000E-04  1.0000E-04   0.000       0.000    
   3    0.000      1.0000E-04  1.0000E-04  1.0000E-04  1.0000E-04  1.0000E-04  1.0000E-04  1.0000E-04   0.000       0.000    
   4   1.0000E-04  1.0000E-04  1.0000E-04  1.0000E-04  1.0000E-04  1.0000E-04  1.0000E-04  1.0000E-04  1.0000E-04   0.000    
   5   1.0000E-04  1.0000E-04  1.0000E-04  1.0000E-04  1.0000E-04  1.0000E-04  1.0000E-04  1.0000E-04  1.0000E-04  1.0000E-04
   6   1.0000E-04  1.0000E-04  1.0000E-04  1.0000E-04  1.0000E-04  1.0000E-04  1.0000E-04  1.0000E-04  1.0000E-04  1.0000E-04
   7   1.0000E-04  1.0000E-04  1.0000E-04  1.0000E-04  1.0000E-04  1.0000E-04  1.0000E-04  1.0000E-04  1.0000E-04   0.000    
   8    0.000      1.0000E-04  1.0000E-04  1.0000E-04  1.0000E-04  1.0000E-04  1.0000E-04  1.0000E-04  1.0000E-04   0.000    
   9    0.000      1.0000E-04  1.0000E-04  1.0000E-04  1.0000E-04  1.0000E-04  1.0000E-04  1.0000E-04  1.0000E-04   0.000    
  10    0.000      1.0000E-04  1.0000E-04  1.0000E-04  1.0000E-04  1.0000E-04  1.0000E-04  1.0000E-04  1.0000E-04  1.0000E-04
  11    0.000      1.0000E-04  1.0000E-04  1.0000E-04  1.0000E-04  1.0000E-04  1.0000E-04  1.0000E-04  1.0000E-04   0.000    
  12   1.0000E-04  1.0000E-04  1.0000E-04  1.0000E-04  1.0000E-04  1.0000E-04  1.0000E-04  1.0000E-04  1.0000E-04   0.000    
  13   1.0000E-04  1.0000E-04  1.0000E-04  1.0000E-04  1.0000E-04  1.0000E-04  1.0000E-04  1.0000E-04  1.0000E-04   0.000    
  14    0.000      1.0000E-04  1.0000E-04  1.0000E-04  1.0000E-04  1.0000E-04  1.0000E-04  1.0000E-04  1.0000E-04   0.000    
  15    0.000       0.000      1.0000E-04  1.0000E-04  1.0000E-04  1.0000E-04   0.000       0.000       0.000       0.000    



            LAND SURFACE VERTICAL K
 READING ON UNIT   19 WITH FORMAT: (10F4.0)            

            1           2           3           4           5           6           7           8           9          10
 ........................................................................................................................
   1   1.0000E-05  1.0000E-05   0.000       0.000       0.000       0.000       0.000       0.000       0.000       0.000    
   2   1.0000E-05  1.0000E-05  1.0000E-05   0.000       0.000      1.0000E-05  1.0000E-05  1.0000E-05   0.000       0.000    
   3    0.000      1.0000E-05  1.0000E-05  1.0000E-05  1.0000E-05  1.0000E-05  1.0000E-05  1.0000E-05   0.000       0.000    
   4   1.0000E-05  1.0000E-05  1.0000E-05  1.0000E-05  1.0000E-05  1.0000E-05  1.0000E-05  1.0000E-05  1.0000E-05   0.000    
   5   1.0000E-05  1.0000E-05  1.0000E-05  1.0000E-05  1.0000E-05  1.0000E-05  1.0000E-05  1.0000E-05  1.0000E-05  1.0000E-05
   6   1.0000E-05  1.0000E-05  1.0000E-05  1.0000E-05  1.0000E-05  1.0000E-05  1.0000E-05  1.0000E-05  1.0000E-05  1.0000E-05
   7   1.0000E-05  1.0000E-05  1.0000E-05  1.0000E-05  1.0000E-05  1.0000E-05  1.0000E-05  1.0000E-05  1.0000E-05   0.000    
   8    0.000      1.0000E-05  1.0000E-05  1.0000E-05  1.0000E-05  1.0000E-05  1.0000E-05  1.0000E-05  1.0000E-05   0.000    
   9    0.000      1.0000E-05  1.0000E-05  1.0000E-05  1.0000E-05  1.0000E-05  1.0000E-05  1.0000E-05  1.0000E-05   0.000    
  10    0.000      1.0000E-05  1.0000E-05  1.0000E-05  1.0000E-05  1.0000E-05  1.0000E-05  1.0000E-05  1.0000E-05  1.0000E-05
  11    0.000      1.0000E-05  1.0000E-05  1.0000E-05  1.0000E-05  1.0000E-05  1.0000E-05  1.0000E-05  1.0000E-05   0.000    
  12   1.0000E-05  1.0000E-05  1.0000E-05  1.0000E-05  1.0000E-05  1.0000E-05  1.0000E-05  1.0000E-05  1.0000E-05   0.000    
  13   1.0000E-05  1.0000E-05  1.0000E-05  1.0000E-05  1.0000E-05  1.0000E-05  1.0000E-05  1.0000E-05  1.0000E-05   0.000    
  14    0.000      1.0000E-05  1.0000E-05  1.0000E-05  1.0000E-05  1.0000E-05  1.0000E-05  1.0000E-05  1.0000E-05   0.000    
  15    0.000       0.000      1.0000E-05  1.0000E-05  1.0000E-05  1.0000E-05   0.000       0.000       0.000       0.000    

     BROOKS-COREY EPSILON =   4.50000    

  SATURATED WATER CONTENT =  0.300000    

   RESIDUAL WATER CONTENT =  8.000000E-02

    INITIAL WATER CONTENT =  8.000000E-02

UNSATURATED FLOW RESULTS WILL BE PRINTED TO SEPARATE FILES FOR SELECTED MODEL CELLS, AND TIME STEPS AS DEFINED BY OUTPUT CONTROL PACKAGE 

SELECTED MODEL CELLS ARE: 
 ROW NUMBER  COLUMN NUMBER  FORTRAN UNIT NUMBER  OUTPUT OPTION


       6             4                 65                 1
       6             5                 66                 2
       8             4                 67                 3
       0             0                 68                 4



   8 GAGING STATIONS WERE SPECIFIED.
     (Lakes are identified by a negative value of the Lake Number)
     RECORDS WILL BE WRITTEN TO SEPARATE OUTPUT FILES REPRESENTED BY FOLLOWING UNIT NUMBERS:

 Stream Gages:
  GAGE #   SEGMENT   REACH   UNIT   OUTTYPE
       1       1       4      83       1
       2       2       3      84       1
       3       3       5      85       1
       4       4       3      86       1
       5       5       4      87       4
       6       6       5      88       4
       7       7       3      89       4
       8       8       6      90       4





 AG -- AG PACKAGE FOR NWT VERSION 1.1.3,  8/01/2017 INPUT READ FROM UNIT   57
 # AG options

 PROCESSING AG OPTIONS
 
 AGRICULTURAL DEMANDS WILL BE CALCULATED USING ET DEFICIT
 
 
 OPTION TO APPLY PUMPED WATER AS IRRIGATION IS ACTIVE. PUMPED IRRIGATION WATER WILL BE APPLIED TO          6 CELLS/RHUS.
 
 
 THE MAXIMUM NUMBER OF WELLS FOR SUPPLEMENTING DIVERSIONS OR APPLYING IRRIGATION IS          6 WELLS.
 
 
  UNFORMATTED CELL BY CELL RATES FOR SUP AND IRR WELLS WILL BE SAVED TO FILE UNIT NUMBER         -2
 
 
  UNFORMATTED CELL BY CELL RATES FOR SUP AND IRR WELLS WILL BE SAVED TO FILE UNIT NUMBER         -2
 
 
  GROUND WATER IRRIGATION, POTENTIAL AND ACTUAL ET WILL BE SAVED TO TIMES SERIES OUTPUT FILES.
 
 
  GROUND WATER IRRIGATION, POTENTIAL AND ACTUAL ET WILL BE SAVED TO TIMES SERIES OUTPUT FILES.
 

 END PROCESSING AG OPTIONS
 # AG time series

 PROCESSING TIME SERIES

 FINISHED READING TIME SERIES
 A total number of          0 AG output time series files were activated for SURFACE WATER 
 A total number of          2 AG output time series files were activated for GROUNDWATER 
 A total number of          0 AG output time series files were activated for SURFACE WATER ET
 A total number of          2 AG output time series files were activated for GROUNDWATER ET
1
                            STRESS PERIOD NO.    1, LENGTH =   86400.00    
                            -----------------------------------------------

                              NUMBER OF TIME STEPS =     1

                               MULTIPLIER FOR DELT =     1.000

                            INITIAL TIME STEP SIZE =   86400.00    

 BOUND. NO. LAYER   ROW   COL     STAGE      CONDUCTANCE         
 ----------------------------------------------------------------
      1      1     13      1       988.0          0.3800E-01
      2      1     14      9       1045.          0.3800E-01

      2 GHB CELLS



 CLASSIFICATION & COUNT OF STREAM SEGMENTS BASED ON SOURCE OF INFLOW:

                HEADWATER     DIVERSION     RECEIVES TRIBUTARY FLOW
                ---------     ---------     -----------------------
                     3              1               4



                    INPUT DATA FOR EACH STREAM SEGMENT
 ---------------------------------------------------------------------------------------------

 SEGMENT    SEG.     INFLOW   OVERLAND   STREAM    STREAM   ICALC  OUTFLOW  DIVERSION PRIORITY
    NO.    LENGTH     RATE     RUNOFF      ET       PPT.    METH.  TO SEG.  FROM SEG.    NO.

      1  2.305E+04 2.500E+01 0.000E+00 0.000E+00 0.000E+00    4        2        0        0
      2  2.650E+04 0.000E+00 0.000E+00 0.000E+00 0.000E+00    1        6        0        0
      3  2.750E+04 2.000E+00 0.000E+00 0.000E+00 0.000E+00    0        5        1        0
      4  1.100E+04 1.000E+01 0.000E+00 0.000E+00 0.000E+00    1        5        0        0
      5  1.500E+04 0.000E+00 0.000E+00 0.000E+00 0.000E+00    3        6        0        0
      6  2.200E+04 0.000E+00 0.000E+00 0.000E+00 0.000E+00    1        8        0        0
      7  1.550E+04 1.500E+02 0.000E+00 0.000E+00 0.000E+00    2        8        0        0
      8  2.800E+04 0.000E+00 0.000E+00 0.000E+00 0.000E+00    2        0        0        0


         STREAMBED PROPERTIES AND STREAM DIMENSIONS

 SEGMENT     BED HYD. COND.      BED THICKNESS     ELEV.-TOP OF BED     WIDTH OF STREAM     DEPTH OF STREAM    STREAM ROUGHNESS
    No.     UPPER     LOWER     UPPER     LOWER     UPPER     LOWER     UPPER     LOWER     UPPER     LOWER   CHANNEL      BANK

     1  3.000E-05 3.000E-05 3.000E+00 3.000E+00 1.095E+03 1.075E+03
     2  3.000E-05 3.000E-05 3.000E+00 3.000E+00 1.075E+03 1.050E+03 1.200E+01 1.200E+01                     3.000E-02
     3  3.000E-05 3.000E-05 2.000E+00 2.000E+00 1.075E+03 1.060E+03 1.000E+01 6.000E+00 2.000E+00 1.000E+00
     4  3.000E-05 3.000E-05 3.000E+00 3.000E+00 1.080E+03 1.060E+03 1.000E+01 1.000E+01                     3.000E-02
     5  3.000E-05 3.000E-05 3.000E+00 3.000E+00 1.060E+03 1.045E+03
     6  3.000E-05 3.000E-05 3.000E+00 3.000E+00 1.045E+03 1.025E+03 1.200E+01 1.200E+01                     3.000E-02
     7  6.000E-05 6.000E-05 3.000E+00 3.000E+00 1.040E+03 1.025E+03                                         2.500E-02 4.500E-02
     8  6.000E-05 6.000E-05 3.000E+00 3.000E+00 1.025E+03 9.900E+02                                         2.500E-02 4.500E-02

  EIGHT POINT CROSS-SECTION DATA FOR SEGMENTS WITH ICALC = 2
    X VALUES X VALUES START FROM LEFT SIDE LOOKING DOWNSTREAM

     SEGMENT NO.        X1        X2        X3        X4        X5        X6        X7        X8
            7      0.000E+00 1.000E+01 8.000E+01 1.000E+02 1.500E+02 1.700E+02 2.400E+02 2.500E+02
            8      0.000E+00 1.000E+01 8.000E+01 1.000E+02 1.500E+02 1.700E+02 2.400E+02 2.500E+02

    Z VALUES ARE RELATIVE TO STREAMBED ELEVATION

     SEGMENT NO.          Z1        Z2        Z3        Z4        Z5        Z6        Z7        Z8
            7      2.000E+01 1.300E+01 1.000E+01 2.000E+00 0.000E+00 1.000E+01 1.300E+01 2.000E+01
            8      2.500E+01 1.700E+01 1.300E+01 4.000E+00 0.000E+00 1.000E+01 1.600E+01 2.000E+01

 STREAMFLOW RELATION WITH DEPTH IS BASED ON EQUATION Q = CDPTH*(DEPTH)**FDPTH
 STREAMFLOW RELATION WITH WIDTH IS BASED ON EQUATION Q = AWDTH*(WIDTH)**BWDTH

 SEGMENT NO.      CDPTH     FDPTH    AWDTH     BWDTH

          5 3.000E-01 3.500E-01 3.800E+00 6.000E-01

 STREAMFLOW RELATION WITH DEPTH AND WIDTH IS BASED ON TABULATED VALUES

  SEGMENT NO.   STREAMFLOW       DEPTH       WIDTH

          1     5.0000E-01   2.5000E-01   3.0000E+00
          1     1.0000E+00   4.0000E-01   3.5000E+00
          1     2.0000E+00   5.5000E-01   4.2000E+00
          1     4.0000E+00   7.0000E-01   5.3000E+00
          1     7.0000E+00   8.0000E-01   7.0000E+00
          1     1.0000E+01   9.0000E-01   8.5000E+00
          1     2.0000E+01   1.1000E+00   1.2000E+01
          1     3.0000E+01   1.2500E+00   1.4000E+01
          1     5.0000E+01   1.4000E+00   1.7000E+01
          1     7.5000E+01   1.7000E+00   2.0000E+01
          1     1.0000E+02   1.8000E+00   2.2000E+01



TABULAR INFLOWS WERE READ FOR SEGMENT      1
FROM FILE UNIT NUMBER     55

          TIMES                    INFLOWS
         0.0000000000E+00     0.5000000000E+01
         0.8640000000E+05     0.2200000000E+02
         0.2760000000E+07     0.4200000000E+02
         0.5270000000E+07     0.7700000000E+02
         0.7950000000E+07     0.2800000000E+02
         0.1050000000E+08     0.9900000000E+02
         0.1320000000E+08     0.8300000000E+02
         0.1580000000E+08     0.7500000000E+02
         0.1850000000E+08     0.6100000000E+02
         0.2120000000E+08     0.4700000000E+02
         0.2380000000E+08     0.3500000000E+02
         0.2640000000E+08     0.2600000000E+02
         0.2900000000E+08     0.2300000000E+02
         0.3170000000E+08     0.1900000000E+02
         0.3440000000E+08     0.2100000000E+02
         0.3680000000E+08     0.9800000000E+02
         0.3950000000E+08     0.7500000000E+02
         0.4210000000E+08     0.6300000000E+02
         0.4480000000E+08     0.5800000000E+02
         0.4730000000E+08     0.5400000000E+02
         0.5000000000E+08     0.3700000000E+02
         0.5270000000E+08     0.2500000000E+02
         0.5530000000E+08     0.2200000000E+02
         0.5800000000E+08     0.2100000000E+02
         0.6060000000E+08     0.2000000000E+02
         0.6320000000E+08     0.1900000000E+02



            AREAL INFILTRATION RATE
 READING ON UNIT   19 WITH FORMAT: (10F4.0)            

            1           2           3           4           5           6           7           8           9          10
 ........................................................................................................................
   1   1.0000E-10  2.0000E-10   0.000       0.000       0.000       0.000       0.000       0.000       0.000       0.000    
   2   2.0000E-10  1.0000E-10  2.0000E-10   0.000       0.000      8.0000E-10  8.0000E-10  5.0000E-10   0.000       0.000    
   3    0.000      5.0000E-10  1.0000E-10  1.0000E-10  8.0000E-10  8.0000E-10  5.0000E-10  5.0000E-10   0.000       0.000    
   4   8.0000E-10  5.0000E-10  1.0000E-10  1.0000E-10  1.0000E-10  1.0000E-10  1.0000E-10  1.0000E-10  2.0000E-10   0.000    
   5   8.0000E-10  5.0000E-10  1.0000E-10  1.0000E-10  1.0000E-10  1.0000E-10  1.0000E-10  1.0000E-10  1.0000E-10  1.0000E-10
   6   8.0000E-10  5.0000E-10  5.0000E-10  2.0000E-10  2.0000E-10  1.0000E-10  1.0000E-10  1.0000E-10  1.0000E-10  5.0000E-10
   7   8.0000E-10  5.0000E-10  5.0000E-10  2.0000E-10  2.0000E-10  1.0000E-10  1.0000E-10  2.0000E-10  2.0000E-10   0.000    
   8    0.000      5.0000E-10  5.0000E-10  2.0000E-10  2.0000E-10  1.0000E-10  1.0000E-10  2.0000E-10  5.0000E-10   0.000    
   9    0.000      5.0000E-10  5.0000E-10  2.0000E-10  2.0000E-10  1.0000E-10  1.0000E-10  2.0000E-10  5.0000E-10   0.000    
  10    0.000      5.0000E-10  5.0000E-10  2.0000E-10  2.0000E-10  1.0000E-10  1.0000E-10  2.0000E-10  5.0000E-10  8.0000E-10
  11    0.000      1.0000E-10  1.0000E-10  1.0000E-10  1.0000E-10  1.0000E-10  1.0000E-10  2.0000E-10  5.0000E-10   0.000    
  12   1.0000E-10  1.0000E-10  1.0000E-10  1.0000E-10  1.0000E-10  1.0000E-10  1.0000E-10  1.0000E-10  2.0000E-10   0.000    
  13   1.0000E-10  1.0000E-10  2.0000E-10  2.0000E-10  2.0000E-10  2.0000E-10  2.0000E-10  1.0000E-10  1.0000E-10   0.000    
  14    0.000      2.0000E-10  5.0000E-10  5.0000E-10  5.0000E-10  5.0000E-10  5.0000E-10  2.0000E-10  1.0000E-10   0.000    
  15    0.000       0.000      8.0000E-10  8.0000E-10  8.0000E-10  8.0000E-10   0.000       0.000       0.000       0.000    

                  ET RATE =  1.000000E-08

      ET EXTINCTION DEPTH =  0.500000    

 EXTINCTION WATER CONTENT =  8.000000E-02

EXTINCTION WATER CONTENT FOR CELL AT ROW     1, COLUMN     1 IS LESS THAN RESIDUAL WATER CONTENT-- SETTING EXTINCTION WATER CONTENT EQUAL TO RESIDUAL WATER CONTENT

EXTINCTION WATER CONTENT FOR CELL AT ROW     1, COLUMN     2 IS LESS THAN RESIDUAL WATER CONTENT-- SETTING EXTINCTION WATER CONTENT EQUAL TO RESIDUAL WATER CONTENT

EXTINCTION WATER CONTENT FOR CELL AT ROW     2, COLUMN     1 IS LESS THAN RESIDUAL WATER CONTENT-- SETTING EXTINCTION WATER CONTENT EQUAL TO RESIDUAL WATER CONTENT

EXTINCTION WATER CONTENT FOR CELL AT ROW     2, COLUMN     2 IS LESS THAN RESIDUAL WATER CONTENT-- SETTING EXTINCTION WATER CONTENT EQUAL TO RESIDUAL WATER CONTENT

EXTINCTION WATER CONTENT FOR CELL AT ROW     2, COLUMN     3 IS LESS THAN RESIDUAL WATER CONTENT-- SETTING EXTINCTION WATER CONTENT EQUAL TO RESIDUAL WATER CONTENT

EXTINCTION WATER CONTENT FOR CELL AT ROW     2, COLUMN     6 IS LESS THAN RESIDUAL WATER CONTENT-- SETTING EXTINCTION WATER CONTENT EQUAL TO RESIDUAL WATER CONTENT

EXTINCTION WATER CONTENT FOR CELL AT ROW     2, COLUMN     7 IS LESS THAN RESIDUAL WATER CONTENT-- SETTING EXTINCTION WATER CONTENT EQUAL TO RESIDUAL WATER CONTENT

EXTINCTION WATER CONTENT FOR CELL AT ROW     2, COLUMN     8 IS LESS THAN RESIDUAL WATER CONTENT-- SETTING EXTINCTION WATER CONTENT EQUAL TO RESIDUAL WATER CONTENT

EXTINCTION WATER CONTENT FOR CELL AT ROW     3, COLUMN     2 IS LESS THAN RESIDUAL WATER CONTENT-- SETTING EXTINCTION WATER CONTENT EQUAL TO RESIDUAL WATER CONTENT

EXTINCTION WATER CONTENT FOR CELL AT ROW     3, COLUMN     3 IS LESS THAN RESIDUAL WATER CONTENT-- SETTING EXTINCTION WATER CONTENT EQUAL TO RESIDUAL WATER CONTENT

EXTINCTION WATER CONTENT FOR CELL AT ROW     3, COLUMN     4 IS LESS THAN RESIDUAL WATER CONTENT-- SETTING EXTINCTION WATER CONTENT EQUAL TO RESIDUAL WATER CONTENT

EXTINCTION WATER CONTENT FOR CELL AT ROW     3, COLUMN     5 IS LESS THAN RESIDUAL WATER CONTENT-- SETTING EXTINCTION WATER CONTENT EQUAL TO RESIDUAL WATER CONTENT

EXTINCTION WATER CONTENT FOR CELL AT ROW     3, COLUMN     6 IS LESS THAN RESIDUAL WATER CONTENT-- SETTING EXTINCTION WATER CONTENT EQUAL TO RESIDUAL WATER CONTENT

EXTINCTION WATER CONTENT FOR CELL AT ROW     3, COLUMN     7 IS LESS THAN RESIDUAL WATER CONTENT-- SETTING EXTINCTION WATER CONTENT EQUAL TO RESIDUAL WATER CONTENT

EXTINCTION WATER CONTENT FOR CELL AT ROW     3, COLUMN     8 IS LESS THAN RESIDUAL WATER CONTENT-- SETTING EXTINCTION WATER CONTENT EQUAL TO RESIDUAL WATER CONTENT

EXTINCTION WATER CONTENT FOR CELL AT ROW     4, COLUMN     1 IS LESS THAN RESIDUAL WATER CONTENT-- SETTING EXTINCTION WATER CONTENT EQUAL TO RESIDUAL WATER CONTENT

EXTINCTION WATER CONTENT FOR CELL AT ROW     4, COLUMN     2 IS LESS THAN RESIDUAL WATER CONTENT-- SETTING EXTINCTION WATER CONTENT EQUAL TO RESIDUAL WATER CONTENT

EXTINCTION WATER CONTENT FOR CELL AT ROW     4, COLUMN     3 IS LESS THAN RESIDUAL WATER CONTENT-- SETTING EXTINCTION WATER CONTENT EQUAL TO RESIDUAL WATER CONTENT

EXTINCTION WATER CONTENT FOR CELL AT ROW     4, COLUMN     4 IS LESS THAN RESIDUAL WATER CONTENT-- SETTING EXTINCTION WATER CONTENT EQUAL TO RESIDUAL WATER CONTENT

EXTINCTION WATER CONTENT FOR CELL AT ROW     4, COLUMN     5 IS LESS THAN RESIDUAL WATER CONTENT-- SETTING EXTINCTION WATER CONTENT EQUAL TO RESIDUAL WATER CONTENT

EXTINCTION WATER CONTENT FOR CELL AT ROW     4, COLUMN     6 IS LESS THAN RESIDUAL WATER CONTENT-- SETTING EXTINCTION WATER CONTENT EQUAL TO RESIDUAL WATER CONTENT

EXTINCTION WATER CONTENT FOR CELL AT ROW     4, COLUMN     7 IS LESS THAN RESIDUAL WATER CONTENT-- SETTING EXTINCTION WATER CONTENT EQUAL TO RESIDUAL WATER CONTENT

EXTINCTION WATER CONTENT FOR CELL AT ROW     4, COLUMN     8 IS LESS THAN RESIDUAL WATER CONTENT-- SETTING EXTINCTION WATER CONTENT EQUAL TO RESIDUAL WATER CONTENT

EXTINCTION WATER CONTENT FOR CELL AT ROW     4, COLUMN     9 IS LESS THAN RESIDUAL WATER CONTENT-- SETTING EXTINCTION WATER CONTENT EQUAL TO RESIDUAL WATER CONTENT

EXTINCTION WATER CONTENT FOR CELL AT ROW     5, COLUMN     1 IS LESS THAN RESIDUAL WATER CONTENT-- SETTING EXTINCTION WATER CONTENT EQUAL TO RESIDUAL WATER CONTENT

EXTINCTION WATER CONTENT FOR CELL AT ROW     5, COLUMN     2 IS LESS THAN RESIDUAL WATER CONTENT-- SETTING EXTINCTION WATER CONTENT EQUAL TO RESIDUAL WATER CONTENT

EXTINCTION WATER CONTENT FOR CELL AT ROW     5, COLUMN     3 IS LESS THAN RESIDUAL WATER CONTENT-- SETTING EXTINCTION WATER CONTENT EQUAL TO RESIDUAL WATER CONTENT

EXTINCTION WATER CONTENT FOR CELL AT ROW     5, COLUMN     4 IS LESS THAN RESIDUAL WATER CONTENT-- SETTING EXTINCTION WATER CONTENT EQUAL TO RESIDUAL WATER CONTENT

EXTINCTION WATER CONTENT FOR CELL AT ROW     5, COLUMN     5 IS LESS THAN RESIDUAL WATER CONTENT-- SETTING EXTINCTION WATER CONTENT EQUAL TO RESIDUAL WATER CONTENT

EXTINCTION WATER CONTENT FOR CELL AT ROW     5, COLUMN     6 IS LESS THAN RESIDUAL WATER CONTENT-- SETTING EXTINCTION WATER CONTENT EQUAL TO RESIDUAL WATER CONTENT

EXTINCTION WATER CONTENT FOR CELL AT ROW     5, COLUMN     7 IS LESS THAN RESIDUAL WATER CONTENT-- SETTING EXTINCTION WATER CONTENT EQUAL TO RESIDUAL WATER CONTENT

EXTINCTION WATER CONTENT FOR CELL AT ROW     5, COLUMN     8 IS LESS THAN RESIDUAL WATER CONTENT-- SETTING EXTINCTION WATER CONTENT EQUAL TO RESIDUAL WATER CONTENT

EXTINCTION WATER CONTENT FOR CELL AT ROW     5, COLUMN     9 IS LESS THAN RESIDUAL WATER CONTENT-- SETTING EXTINCTION WATER CONTENT EQUAL TO RESIDUAL WATER CONTENT

EXTINCTION WATER CONTENT FOR CELL AT ROW     5, COLUMN    10 IS LESS THAN RESIDUAL WATER CONTENT-- SETTING EXTINCTION WATER CONTENT EQUAL TO RESIDUAL WATER CONTENT

EXTINCTION WATER CONTENT FOR CELL AT ROW     6, COLUMN     1 IS LESS THAN RESIDUAL WATER CONTENT-- SETTING EXTINCTION WATER CONTENT EQUAL TO RESIDUAL WATER CONTENT

EXTINCTION WATER CONTENT FOR CELL AT ROW     6, COLUMN     2 IS LESS THAN RESIDUAL WATER CONTENT-- SETTING EXTINCTION WATER CONTENT EQUAL TO RESIDUAL WATER CONTENT

EXTINCTION WATER CONTENT FOR CELL AT ROW     6, COLUMN     3 IS LESS THAN RESIDUAL WATER CONTENT-- SETTING EXTINCTION WATER CONTENT EQUAL TO RESIDUAL WATER CONTENT

EXTINCTION WATER CONTENT FOR CELL AT ROW     6, COLUMN     4 IS LESS THAN RESIDUAL WATER CONTENT-- SETTING EXTINCTION WATER CONTENT EQUAL TO RESIDUAL WATER CONTENT

EXTINCTION WATER CONTENT FOR CELL AT ROW     6, COLUMN     5 IS LESS THAN RESIDUAL WATER CONTENT-- SETTING EXTINCTION WATER CONTENT EQUAL TO RESIDUAL WATER CONTENT

EXTINCTION WATER CONTENT FOR CELL AT ROW     6, COLUMN     6 IS LESS THAN RESIDUAL WATER CONTENT-- SETTING EXTINCTION WATER CONTENT EQUAL TO RESIDUAL WATER CONTENT

EXTINCTION WATER CONTENT FOR CELL AT ROW     6, COLUMN     7 IS LESS THAN RESIDUAL WATER CONTENT-- SETTING EXTINCTION WATER CONTENT EQUAL TO RESIDUAL WATER CONTENT

EXTINCTION WATER CONTENT FOR CELL AT ROW     6, COLUMN     8 IS LESS THAN RESIDUAL WATER CONTENT-- SETTING EXTINCTION WATER CONTENT EQUAL TO RESIDUAL WATER CONTENT

EXTINCTION WATER CONTENT FOR CELL AT ROW     6, COLUMN     9 IS LESS THAN RESIDUAL WATER CONTENT-- SETTING EXTINCTION WATER CONTENT EQUAL TO RESIDUAL WATER CONTENT

EXTINCTION WATER CONTENT FOR CELL AT ROW     6, COLUMN    10 IS LESS THAN RESIDUAL WATER CONTENT-- SETTING EXTINCTION WATER CONTENT EQUAL TO RESIDUAL WATER CONTENT

EXTINCTION WATER CONTENT FOR CELL AT ROW     7, COLUMN     1 IS LESS THAN RESIDUAL WATER CONTENT-- SETTING EXTINCTION WATER CONTENT EQUAL TO RESIDUAL WATER CONTENT

EXTINCTION WATER CONTENT FOR CELL AT ROW     7, COLUMN     2 IS LESS THAN RESIDUAL WATER CONTENT-- SETTING EXTINCTION WATER CONTENT EQUAL TO RESIDUAL WATER CONTENT

EXTINCTION WATER CONTENT FOR CELL AT ROW     7, COLUMN     3 IS LESS THAN RESIDUAL WATER CONTENT-- SETTING EXTINCTION WATER CONTENT EQUAL TO RESIDUAL WATER CONTENT

EXTINCTION WATER CONTENT FOR CELL AT ROW     7, COLUMN     4 IS LESS THAN RESIDUAL WATER CONTENT-- SETTING EXTINCTION WATER CONTENT EQUAL TO RESIDUAL WATER CONTENT

EXTINCTION WATER CONTENT FOR CELL AT ROW     7, COLUMN     5 IS LESS THAN RESIDUAL WATER CONTENT-- SETTING EXTINCTION WATER CONTENT EQUAL TO RESIDUAL WATER CONTENT

EXTINCTION WATER CONTENT FOR CELL AT ROW     7, COLUMN     6 IS LESS THAN RESIDUAL WATER CONTENT-- SETTING EXTINCTION WATER CONTENT EQUAL TO RESIDUAL WATER CONTENT

EXTINCTION WATER CONTENT FOR CELL AT ROW     7, COLUMN     7 IS LESS THAN RESIDUAL WATER CONTENT-- SETTING EXTINCTION WATER CONTENT EQUAL TO RESIDUAL WATER CONTENT

EXTINCTION WATER CONTENT FOR CELL AT ROW     7, COLUMN     8 IS LESS THAN RESIDUAL WATER CONTENT-- SETTING EXTINCTION WATER CONTENT EQUAL TO RESIDUAL WATER CONTENT

EXTINCTION WATER CONTENT FOR CELL AT ROW     7, COLUMN     9 IS LESS THAN RESIDUAL WATER CONTENT-- SETTING EXTINCTION WATER CONTENT EQUAL TO RESIDUAL WATER CONTENT

EXTINCTION WATER CONTENT FOR CELL AT ROW     8, COLUMN     2 IS LESS THAN RESIDUAL WATER CONTENT-- SETTING EXTINCTION WATER CONTENT EQUAL TO RESIDUAL WATER CONTENT

EXTINCTION WATER CONTENT FOR CELL AT ROW     8, COLUMN     3 IS LESS THAN RESIDUAL WATER CONTENT-- SETTING EXTINCTION WATER CONTENT EQUAL TO RESIDUAL WATER CONTENT

EXTINCTION WATER CONTENT FOR CELL AT ROW     8, COLUMN     4 IS LESS THAN RESIDUAL WATER CONTENT-- SETTING EXTINCTION WATER CONTENT EQUAL TO RESIDUAL WATER CONTENT

EXTINCTION WATER CONTENT FOR CELL AT ROW     8, COLUMN     5 IS LESS THAN RESIDUAL WATER CONTENT-- SETTING EXTINCTION WATER CONTENT EQUAL TO RESIDUAL WATER CONTENT

EXTINCTION WATER CONTENT FOR CELL AT ROW     8, COLUMN     6 IS LESS THAN RESIDUAL WATER CONTENT-- SETTING EXTINCTION WATER CONTENT EQUAL TO RESIDUAL WATER CONTENT

EXTINCTION WATER CONTENT FOR CELL AT ROW     8, COLUMN     7 IS LESS THAN RESIDUAL WATER CONTENT-- SETTING EXTINCTION WATER CONTENT EQUAL TO RESIDUAL WATER CONTENT

EXTINCTION WATER CONTENT FOR CELL AT ROW     8, COLUMN     8 IS LESS THAN RESIDUAL WATER CONTENT-- SETTING EXTINCTION WATER CONTENT EQUAL TO RESIDUAL WATER CONTENT

EXTINCTION WATER CONTENT FOR CELL AT ROW     8, COLUMN     9 IS LESS THAN RESIDUAL WATER CONTENT-- SETTING EXTINCTION WATER CONTENT EQUAL TO RESIDUAL WATER CONTENT

EXTINCTION WATER CONTENT FOR CELL AT ROW     9, COLUMN     2 IS LESS THAN RESIDUAL WATER CONTENT-- SETTING EXTINCTION WATER CONTENT EQUAL TO RESIDUAL WATER CONTENT

EXTINCTION WATER CONTENT FOR CELL AT ROW     9, COLUMN     3 IS LESS THAN RESIDUAL WATER CONTENT-- SETTING EXTINCTION WATER CONTENT EQUAL TO RESIDUAL WATER CONTENT

EXTINCTION WATER CONTENT FOR CELL AT ROW     9, COLUMN     4 IS LESS THAN RESIDUAL WATER CONTENT-- SETTING EXTINCTION WATER CONTENT EQUAL TO RESIDUAL WATER CONTENT

EXTINCTION WATER CONTENT FOR CELL AT ROW     9, COLUMN     5 IS LESS THAN RESIDUAL WATER CONTENT-- SETTING EXTINCTION WATER CONTENT EQUAL TO RESIDUAL WATER CONTENT

EXTINCTION WATER CONTENT FOR CELL AT ROW     9, COLUMN     6 IS LESS THAN RESIDUAL WATER CONTENT-- SETTING EXTINCTION WATER CONTENT EQUAL TO RESIDUAL WATER CONTENT

EXTINCTION WATER CONTENT FOR CELL AT ROW     9, COLUMN     7 IS LESS THAN RESIDUAL WATER CONTENT-- SETTING EXTINCTION WATER CONTENT EQUAL TO RESIDUAL WATER CONTENT

EXTINCTION WATER CONTENT FOR CELL AT ROW     9, COLUMN     8 IS LESS THAN RESIDUAL WATER CONTENT-- SETTING EXTINCTION WATER CONTENT EQUAL TO RESIDUAL WATER CONTENT

EXTINCTION WATER CONTENT FOR CELL AT ROW     9, COLUMN     9 IS LESS THAN RESIDUAL WATER CONTENT-- SETTING EXTINCTION WATER CONTENT EQUAL TO RESIDUAL WATER CONTENT

EXTINCTION WATER CONTENT FOR CELL AT ROW    10, COLUMN     2 IS LESS THAN RESIDUAL WATER CONTENT-- SETTING EXTINCTION WATER CONTENT EQUAL TO RESIDUAL WATER CONTENT

EXTINCTION WATER CONTENT FOR CELL AT ROW    10, COLUMN     3 IS LESS THAN RESIDUAL WATER CONTENT-- SETTING EXTINCTION WATER CONTENT EQUAL TO RESIDUAL WATER CONTENT

EXTINCTION WATER CONTENT FOR CELL AT ROW    10, COLUMN     4 IS LESS THAN RESIDUAL WATER CONTENT-- SETTING EXTINCTION WATER CONTENT EQUAL TO RESIDUAL WATER CONTENT

EXTINCTION WATER CONTENT FOR CELL AT ROW    10, COLUMN     5 IS LESS THAN RESIDUAL WATER CONTENT-- SETTING EXTINCTION WATER CONTENT EQUAL TO RESIDUAL WATER CONTENT

EXTINCTION WATER CONTENT FOR CELL AT ROW    10, COLUMN     6 IS LESS THAN RESIDUAL WATER CONTENT-- SETTING EXTINCTION WATER CONTENT EQUAL TO RESIDUAL WATER CONTENT

EXTINCTION WATER CONTENT FOR CELL AT ROW    10, COLUMN     7 IS LESS THAN RESIDUAL WATER CONTENT-- SETTING EXTINCTION WATER CONTENT EQUAL TO RESIDUAL WATER CONTENT

EXTINCTION WATER CONTENT FOR CELL AT ROW    10, COLUMN     8 IS LESS THAN RESIDUAL WATER CONTENT-- SETTING EXTINCTION WATER CONTENT EQUAL TO RESIDUAL WATER CONTENT

EXTINCTION WATER CONTENT FOR CELL AT ROW    10, COLUMN     9 IS LESS THAN RESIDUAL WATER CONTENT-- SETTING EXTINCTION WATER CONTENT EQUAL TO RESIDUAL WATER CONTENT

EXTINCTION WATER CONTENT FOR CELL AT ROW    10, COLUMN    10 IS LESS THAN RESIDUAL WATER CONTENT-- SETTING EXTINCTION WATER CONTENT EQUAL TO RESIDUAL WATER CONTENT

EXTINCTION WATER CONTENT FOR CELL AT ROW    11, COLUMN     2 IS LESS THAN RESIDUAL WATER CONTENT-- SETTING EXTINCTION WATER CONTENT EQUAL TO RESIDUAL WATER CONTENT

EXTINCTION WATER CONTENT FOR CELL AT ROW    11, COLUMN     3 IS LESS THAN RESIDUAL WATER CONTENT-- SETTING EXTINCTION WATER CONTENT EQUAL TO RESIDUAL WATER CONTENT

EXTINCTION WATER CONTENT FOR CELL AT ROW    11, COLUMN     4 IS LESS THAN RESIDUAL WATER CONTENT-- SETTING EXTINCTION WATER CONTENT EQUAL TO RESIDUAL WATER CONTENT

EXTINCTION WATER CONTENT FOR CELL AT ROW    11, COLUMN     5 IS LESS THAN RESIDUAL WATER CONTENT-- SETTING EXTINCTION WATER CONTENT EQUAL TO RESIDUAL WATER CONTENT

EXTINCTION WATER CONTENT FOR CELL AT ROW    11, COLUMN     6 IS LESS THAN RESIDUAL WATER CONTENT-- SETTING EXTINCTION WATER CONTENT EQUAL TO RESIDUAL WATER CONTENT

EXTINCTION WATER CONTENT FOR CELL AT ROW    11, COLUMN     7 IS LESS THAN RESIDUAL WATER CONTENT-- SETTING EXTINCTION WATER CONTENT EQUAL TO RESIDUAL WATER CONTENT

EXTINCTION WATER CONTENT FOR CELL AT ROW    11, COLUMN     8 IS LESS THAN RESIDUAL WATER CONTENT-- SETTING EXTINCTION WATER CONTENT EQUAL TO RESIDUAL WATER CONTENT

EXTINCTION WATER CONTENT FOR CELL AT ROW    11, COLUMN     9 IS LESS THAN RESIDUAL WATER CONTENT-- SETTING EXTINCTION WATER CONTENT EQUAL TO RESIDUAL WATER CONTENT

EXTINCTION WATER CONTENT FOR CELL AT ROW    12, COLUMN     1 IS LESS THAN RESIDUAL WATER CONTENT-- SETTING EXTINCTION WATER CONTENT EQUAL TO RESIDUAL WATER CONTENT

EXTINCTION WATER CONTENT FOR CELL AT ROW    12, COLUMN     2 IS LESS THAN RESIDUAL WATER CONTENT-- SETTING EXTINCTION WATER CONTENT EQUAL TO RESIDUAL WATER CONTENT

EXTINCTION WATER CONTENT FOR CELL AT ROW    12, COLUMN     3 IS LESS THAN RESIDUAL WATER CONTENT-- SETTING EXTINCTION WATER CONTENT EQUAL TO RESIDUAL WATER CONTENT

EXTINCTION WATER CONTENT FOR CELL AT ROW    12, COLUMN     4 IS LESS THAN RESIDUAL WATER CONTENT-- SETTING EXTINCTION WATER CONTENT EQUAL TO RESIDUAL WATER CONTENT

EXTINCTION WATER CONTENT FOR CELL AT ROW    12, COLUMN     5 IS LESS THAN RESIDUAL WATER CONTENT-- SETTING EXTINCTION WATER CONTENT EQUAL TO RESIDUAL WATER CONTENT

EXTINCTION WATER CONTENT FOR CELL AT ROW    12, COLUMN     6 IS LESS THAN RESIDUAL WATER CONTENT-- SETTING EXTINCTION WATER CONTENT EQUAL TO RESIDUAL WATER CONTENT

EXTINCTION WATER CONTENT FOR CELL AT ROW    12, COLUMN     7 IS LESS THAN RESIDUAL WATER CONTENT-- SETTING EXTINCTION WATER CONTENT EQUAL TO RESIDUAL WATER CONTENT

EXTINCTION WATER CONTENT FOR CELL AT ROW    12, COLUMN     8 IS LESS THAN RESIDUAL WATER CONTENT-- SETTING EXTINCTION WATER CONTENT EQUAL TO RESIDUAL WATER CONTENT

EXTINCTION WATER CONTENT FOR CELL AT ROW    12, COLUMN     9 IS LESS THAN RESIDUAL WATER CONTENT-- SETTING EXTINCTION WATER CONTENT EQUAL TO RESIDUAL WATER CONTENT

EXTINCTION WATER CONTENT FOR CELL AT ROW    13, COLUMN     1 IS LESS THAN RESIDUAL WATER CONTENT-- SETTING EXTINCTION WATER CONTENT EQUAL TO RESIDUAL WATER CONTENT

EXTINCTION WATER CONTENT FOR CELL AT ROW    13, COLUMN     2 IS LESS THAN RESIDUAL WATER CONTENT-- SETTING EXTINCTION WATER CONTENT EQUAL TO RESIDUAL WATER CONTENT

EXTINCTION WATER CONTENT FOR CELL AT ROW    13, COLUMN     3 IS LESS THAN RESIDUAL WATER CONTENT-- SETTING EXTINCTION WATER CONTENT EQUAL TO RESIDUAL WATER CONTENT

EXTINCTION WATER CONTENT FOR CELL AT ROW    13, COLUMN     4 IS LESS THAN RESIDUAL WATER CONTENT-- SETTING EXTINCTION WATER CONTENT EQUAL TO RESIDUAL WATER CONTENT

EXTINCTION WATER CONTENT FOR CELL AT ROW    13, COLUMN     5 IS LESS THAN RESIDUAL WATER CONTENT-- SETTING EXTINCTION WATER CONTENT EQUAL TO RESIDUAL WATER CONTENT

EXTINCTION WATER CONTENT FOR CELL AT ROW    13, COLUMN     6 IS LESS THAN RESIDUAL WATER CONTENT-- SETTING EXTINCTION WATER CONTENT EQUAL TO RESIDUAL WATER CONTENT

EXTINCTION WATER CONTENT FOR CELL AT ROW    13, COLUMN     7 IS LESS THAN RESIDUAL WATER CONTENT-- SETTING EXTINCTION WATER CONTENT EQUAL TO RESIDUAL WATER CONTENT

EXTINCTION WATER CONTENT FOR CELL AT ROW    13, COLUMN     8 IS LESS THAN RESIDUAL WATER CONTENT-- SETTING EXTINCTION WATER CONTENT EQUAL TO RESIDUAL WATER CONTENT

EXTINCTION WATER CONTENT FOR CELL AT ROW    13, COLUMN     9 IS LESS THAN RESIDUAL WATER CONTENT-- SETTING EXTINCTION WATER CONTENT EQUAL TO RESIDUAL WATER CONTENT

EXTINCTION WATER CONTENT FOR CELL AT ROW    14, COLUMN     2 IS LESS THAN RESIDUAL WATER CONTENT-- SETTING EXTINCTION WATER CONTENT EQUAL TO RESIDUAL WATER CONTENT

EXTINCTION WATER CONTENT FOR CELL AT ROW    14, COLUMN     3 IS LESS THAN RESIDUAL WATER CONTENT-- SETTING EXTINCTION WATER CONTENT EQUAL TO RESIDUAL WATER CONTENT

EXTINCTION WATER CONTENT FOR CELL AT ROW    14, COLUMN     4 IS LESS THAN RESIDUAL WATER CONTENT-- SETTING EXTINCTION WATER CONTENT EQUAL TO RESIDUAL WATER CONTENT

EXTINCTION WATER CONTENT FOR CELL AT ROW    14, COLUMN     5 IS LESS THAN RESIDUAL WATER CONTENT-- SETTING EXTINCTION WATER CONTENT EQUAL TO RESIDUAL WATER CONTENT

EXTINCTION WATER CONTENT FOR CELL AT ROW    14, COLUMN     6 IS LESS THAN RESIDUAL WATER CONTENT-- SETTING EXTINCTION WATER CONTENT EQUAL TO RESIDUAL WATER CONTENT

EXTINCTION WATER CONTENT FOR CELL AT ROW    14, COLUMN     7 IS LESS THAN RESIDUAL WATER CONTENT-- SETTING EXTINCTION WATER CONTENT EQUAL TO RESIDUAL WATER CONTENT

EXTINCTION WATER CONTENT FOR CELL AT ROW    14, COLUMN     8 IS LESS THAN RESIDUAL WATER CONTENT-- SETTING EXTINCTION WATER CONTENT EQUAL TO RESIDUAL WATER CONTENT

EXTINCTION WATER CONTENT FOR CELL AT ROW    14, COLUMN     9 IS LESS THAN RESIDUAL WATER CONTENT-- SETTING EXTINCTION WATER CONTENT EQUAL TO RESIDUAL WATER CONTENT

EXTINCTION WATER CONTENT FOR CELL AT ROW    15, COLUMN     3 IS LESS THAN RESIDUAL WATER CONTENT-- SETTING EXTINCTION WATER CONTENT EQUAL TO RESIDUAL WATER CONTENT

EXTINCTION WATER CONTENT FOR CELL AT ROW    15, COLUMN     4 IS LESS THAN RESIDUAL WATER CONTENT-- SETTING EXTINCTION WATER CONTENT EQUAL TO RESIDUAL WATER CONTENT

EXTINCTION WATER CONTENT FOR CELL AT ROW    15, COLUMN     5 IS LESS THAN RESIDUAL WATER CONTENT-- SETTING EXTINCTION WATER CONTENT EQUAL TO RESIDUAL WATER CONTENT

EXTINCTION WATER CONTENT FOR CELL AT ROW    15, COLUMN     6 IS LESS THAN RESIDUAL WATER CONTENT-- SETTING EXTINCTION WATER CONTENT EQUAL TO RESIDUAL WATER CONTENT

       AIR ENTRY PRESSURE = -0.100000    

            ROOT PRESSURE =  -30.0000    

            ROOT ACTIVITY =   1.00000    
 # AG well list

 PROCESSING WELL LIST

 LAYER   ROW   COL   MAX STRESS RATE         
 --------------------------------------------
      1      1      6      4     -0.1000E+05
      2      1      6      5     -0.1000E+05
      3      1      7      4     -0.1000E+05
      4      1      7      5     -0.1000E+05
      5      1      8      4     -0.1000E+05
      6      1      8      5     -0.1000E+05

 FINISHED READING WELL LIST

      6 WELLS

 PROCESSING AG STRESS PERIOD DATA
 # AG stress period

 READING AG STRESS PERIOD DATA

 READING IRRIGATION WELL

 END PROCESSING AG STRESS PERIOD DATA OPTIONS
 
 SOLVING FOR HEAD 
                                                   Max.-Head-Change                         Max.-Flux-Residual
  Residual-Control   Outer-Iter.   Inner-Iter.     Column Row Layer    Maximum-Head-Change  Column Row Layer    Maximum-Flux-Residual          L2-NORM 
          0                 1           6             2    2     1      -0.2729307452E+02       3    3    1        -0.3343270791E+01      0.9349602253E+01
          0                 2           6             1    1     1      -0.3190965432E+02       1   13    1        -0.1265339357E+03      0.1266532512E+03
          0                 3           6             1    1     1      -0.1572491794E+01       6   13    1        -0.2190257909E+01      0.4309171012E+01
          0                 4           5             5   13     1      -0.1413305573E+00       5   13    1        -0.2948449754E+00      0.3673593673E+00
          0                 5           4             5   14     1       0.3029532417E-01       5   13    1         0.1459711475E-01      0.2406404321E-01
          0                 6           2             5   14     1      -0.1189222913E-02       5   13    1        -0.5824423081E-03      0.1630050421E-02
          0                 7           1             5   14     1       0.1319549578E-04       7   10    1         0.2182441563E-04      0.6315083061E-04

    ------------------------------------------------
       NWT REQUIRED            7 OUTER ITERATIONS 
       AND A TOTAL OF         30 INNER ITERATIONS.
    ------------------------------------------------

 OUTPUT CONTROL FOR STRESS PERIOD    1   TIME STEP    1
    PRINT BUDGET
    SAVE BUDGET
    SAVE HEAD FOR ALL LAYERS
 UBDSV2 SAVING "   CONSTANT HEAD" ON UNIT 102 AT TIME STEP  1, STRESS PERIOD   1
 UBDSV1 SAVING "FLOW RIGHT FACE " ON UNIT 102 AT TIME STEP  1, STRESS PERIOD   1
 UBDSV1 SAVING "FLOW FRONT FACE " ON UNIT 102 AT TIME STEP  1, STRESS PERIOD   1

  HEAD DEP BOUNDS   PERIOD    1   STEP     1
 BOUNDARY      1   LAYER   1   ROW    13   COL     1   RATE   -0.287309    
 BOUNDARY      2   LAYER   1   ROW    14   COL     9   RATE    0.285356    



 STREAM LISTING     PERIOD      1   STEP        1

 LAYER ROW COL. STREAM  RCH.  FLOW INTO     FLOW TO   FLOW OUT OF   OVRLND.     DIRECT     STREAM       STREAM     STREAM     STREAM   STREAMBED  STREAMBED
                SEG.NO.  NO.  STRM. RCH.    AQUIFER    STRM. RCH.    RUNOFF     PRECIP       ET          HEAD       DEPTH      WIDTH   CONDCTNC.   GRADIENT

   1    1    1     1     1    5.0000E+00  9.9080E-02   4.9009E+00  0.000E+00  0.000E+00  0.000E+00  1.09378E+03  7.365E-01  5.893E+00  2.652E-02  1.246E+00
   1    2    2     1     2    4.9009E+00  1.5199E-01   4.7489E+00  0.000E+00  0.000E+00  0.000E+00  1.08879E+03  7.320E-01  5.818E+00  4.072E-02  1.244E+00
   1    3    3     1     3    4.7489E+00  1.2820E-01   4.6207E+00  0.000E+00  0.000E+00  0.000E+00  1.08315E+03  7.269E-01  5.733E+00  3.440E-02  1.242E+00
   1    3    4     1     4    4.6207E+00  1.1689E-01   4.5038E+00  0.000E+00  0.000E+00  0.000E+00  1.07813E+03  7.223E-01  5.658E+00  3.140E-02  1.241E+00
   1    4    5     2     1    2.5038E+00  2.5694E-01   2.2469E+00  0.000E+00  0.000E+00  0.000E+00  1.07223E+03  2.942E-01  1.200E+01  7.800E-02  1.098E+00
   1    5    6     2     2    2.2469E+00  1.9662E-01   2.0503E+00  0.000E+00  0.000E+00  0.000E+00  1.06679E+03  2.770E-01  1.200E+01  6.000E-02  1.092E+00
   1    6    6     2     3    2.0503E+00  1.9569E-01   1.8546E+00  0.000E+00  0.000E+00  0.000E+00  1.06205E+03  2.615E-01  1.200E+01  6.000E-02  1.087E+00
   1    7    6     2     4    1.8546E+00  1.9473E-01   1.6599E+00  0.000E+00  0.000E+00  0.000E+00  1.05732E+03  2.455E-01  1.200E+01  6.000E-02  1.082E+00
   1    8    6     2     5    1.6599E+00  1.9373E-01   1.4661E+00  0.000E+00  0.000E+00  0.000E+00  1.05259E+03  2.288E-01  1.200E+01  6.000E-02  1.076E+00
   1    3    5     3     1    2.0000E+00  2.8252E-01   1.7175E+00  0.000E+00  0.000E+00  0.000E+00  1.07555E+03  1.909E+00  9.636E+00  7.227E-02  1.955E+00
   1    3    6     3     2    1.7175E+00  2.4905E-01   1.4684E+00  0.000E+00  0.000E+00  0.000E+00  1.07264E+03  1.727E+00  8.909E+00  6.682E-02  1.864E+00
   1    3    7     3     3    1.4684E+00  1.9718E-01   1.2712E+00  0.000E+00  0.000E+00  0.000E+00  1.06987E+03  1.555E+00  8.218E+00  5.547E-02  1.777E+00
   1    4    8     3     4    1.2712E+00  2.2567E-01   1.0456E+00  0.000E+00  0.000E+00  0.000E+00  1.06682E+03  1.364E+00  7.455E+00  6.709E-02  1.682E+00
   1    5    8     3     5    1.0456E+00  1.5790E-01   8.8768E-01  0.000E+00  0.000E+00  0.000E+00  1.06362E+03  1.164E+00  6.655E+00  4.991E-02  1.582E+00
   1    6    8     3     6    8.8768E-01  5.5980E-02   8.3170E-01  0.000E+00  0.000E+00  0.000E+00  1.06158E+03  1.036E+00  6.145E+00  1.844E-02  1.518E+00
   1    5   10     4     1    1.0000E+01  9.0919E-02   9.9091E+00  0.000E+00  0.000E+00  0.000E+00  1.07836E+03  6.368E-01  1.000E+01  2.500E-02  1.212E+00
   1    5    9     4     2    9.9091E+00  1.8158E-01   9.7275E+00  0.000E+00  0.000E+00  0.000E+00  1.07154E+03  6.315E-01  1.000E+01  5.000E-02  1.211E+00
   1    6    8     4     3    9.7275E+00  1.2689E-01   9.6006E+00  0.000E+00  0.000E+00  0.000E+00  1.06381E+03  6.256E-01  1.000E+01  3.500E-02  1.209E+00
   1    6    8     5     1    1.0432E+01  2.2686E-01   1.0205E+01  0.000E+00  0.000E+00  0.000E+00  1.05868E+03  6.790E-01  1.542E+01  6.166E-02  1.226E+00
   1    7    7     5     2    1.0205E+01  2.7894E-01   9.9265E+00  0.000E+00  0.000E+00  0.000E+00  1.05417E+03  6.732E-01  1.519E+01  7.594E-02  1.224E+00
   1    8    7     5     3    9.9265E+00  1.9221E-01   9.7343E+00  0.000E+00  0.000E+00  0.000E+00  1.04992E+03  6.676E-01  1.497E+01  5.241E-02  1.223E+00
   1    8    6     5     4    9.7343E+00  1.3577E-01   9.5985E+00  0.000E+00  0.000E+00  0.000E+00  1.04691E+03  6.637E-01  1.482E+01  3.706E-02  1.221E+00
   1    9    6     6     1    1.1065E+01  2.2465E-01   1.0840E+01  0.000E+00  0.000E+00  0.000E+00  1.04347E+03  7.442E-01  1.200E+01  6.000E-02  1.248E+00
   1   10    7     6     2    1.0840E+01  2.2410E-01   1.0616E+01  0.000E+00  0.000E+00  0.000E+00  1.03892E+03  7.350E-01  1.200E+01  6.000E-02  1.245E+00
   1   11    7     6     3    1.0616E+01  2.2354E-01   1.0392E+01  0.000E+00  0.000E+00  0.000E+00  1.03436E+03  7.257E-01  1.200E+01  6.000E-02  1.242E+00
   1   12    7     6     4    1.0392E+01  2.2299E-01   1.0169E+01  0.000E+00  0.000E+00  0.000E+00  1.02981E+03  7.165E-01  1.200E+01  6.000E-02  1.239E+00
   1   13    7     6     5    1.0169E+01 -1.0974E-01   1.0279E+01  0.000E+00  0.000E+00  0.000E+00  1.02662E+03  7.141E-01  1.200E+01  2.400E-01 -1.524E-01
   1   14    9     7     1    1.5000E+02  1.3299E+00   1.4867E+02  0.000E+00  0.000E+00  0.000E+00  1.03987E+03  2.288E+00  5.529E+01  5.593E-01  7.926E-01
   1   13    8     7     2    1.4867E+02  1.8245E+00   1.4685E+02  0.000E+00  0.000E+00  0.000E+00  1.03478E+03  2.279E+00  5.526E+01  6.148E-01  9.892E-01
   1   13    7     7     3    1.4685E+02  1.4573E+00   1.4539E+02  0.000E+00  0.000E+00  0.000E+00  1.02969E+03  2.271E+00  5.522E+01  5.585E-01  8.698E-01
   1   13    6     8     1    1.5567E+02  8.1890E-01   1.5485E+02  0.000E+00  0.000E+00  0.000E+00  1.02473E+03  2.853E+00  4.138E+01  4.216E-01  6.474E-01
   1   13    5     8     2    1.5485E+02  9.0639E-02   1.5476E+02  0.000E+00  0.000E+00  0.000E+00  1.01848E+03  2.850E+00  4.133E+01  4.212E-01  7.174E-02
   1   13    4     8     3    1.5476E+02 -2.7168E+00   1.5747E+02  0.000E+00  0.000E+00  0.000E+00  1.01223E+03  2.859E+00  4.146E+01  4.225E+00 -2.143E-01
   1   13    3     8     4    1.5747E+02 -3.7756E+00   1.6125E+02  0.000E+00  0.000E+00  0.000E+00  1.00601E+03  2.882E+00  4.178E+01  4.258E+00 -2.956E-01
   1   13    2     8     5    1.6125E+02 -2.6098E+00   1.6386E+02  0.000E+00  0.000E+00  0.000E+00  9.99778E+02  2.903E+00  4.209E+01  4.290E+00 -2.028E-01
   1   13    1     8     6    1.6386E+02 -1.9855E+00   1.6585E+02  0.000E+00  0.000E+00  0.000E+00  9.94793E+02  2.918E+00  4.232E+01  2.587E+00 -2.558E-01



 UBDSV3 SAVING "           GW ET" ON UNIT  61 AT TIME STEP  1, STRESS PERIOD   1
 UBDSV3 SAVING "    UZF RECHARGE" ON UNIT  61 AT TIME STEP  1, STRESS PERIOD   1
 UBDSV3 SAVING " SURFACE LEAKAGE" ON UNIT  61 AT TIME STEP  1, STRESS PERIOD   1
 UBDSV3 SAVING "       HORT+DUNN" ON UNIT  61 AT TIME STEP  1, STRESS PERIOD   1
 UBDSV3 SAVING "  STORAGE CHANGE" ON UNIT  61 AT TIME STEP  1, STRESS PERIOD   1


UNSATURATED ZONE PACKAGE VOLUMETRIC BUDGET FOR  TIME STEP     1 STRESS PERIOD    1
  ------------------------------------------------------------------------------



     CUMULATIVE VOLUMES      L**3       RATES FOR THIS TIME STEP      L**3/T
     ------------------                 ------------------------

           IN:                                      IN:
           ---                                      ---
        INFILTRATION =       73224.0000          INFILTRATION =           0.8475

          OUT:                                     OUT:
          ----                                     ----
              UZF ET =       0.0000E+00                UZF ET =       0.0000E+00
        UZF RECHARGE =       73224.0000          UZF RECHARGE =           0.8475

            IN - OUT =       0.0000E+00              IN - OUT =       0.0000E+00

          STORAGE:                                 STORAGE:
          --------                                 --------
      STORAGE CHANGE =       0.0000E+00        STORAGE CHANGE =       0.0000E+00

 PERCENT DISCREPANCY IS DIFFERENCE BETWEEN IN-OUT MINUS CHANGE IN STORAGE
 DIVIDED BY THE AVERAGE OF IN AND OUT TIMES 100

 PERCENT DISCREPANCY =           0.00     PERCENT DISCREPANCY =           0.00






 

            AG WELLS      PERIOD    1   STEP   1
 AG WELL      1   LAYER   1   ROW     6   COL     4   RATE     0.00000    
 AG WELL      2   LAYER   1   ROW     6   COL     5   RATE     0.00000    
 AG WELL      3   LAYER   1   ROW     7   COL     4   RATE     0.00000    
 AG WELL      4   LAYER   1   ROW     7   COL     5   RATE     0.00000    
 AG WELL      5   LAYER   1   ROW     8   COL     4   RATE     0.00000    
 AG WELL      6   LAYER   1   ROW     8   COL     5   RATE     0.00000    
 
 

        GW IRRIGATION     PERIOD    1   STEP   1
 
1
  VOLUMETRIC BUDGET FOR AGRICULTURAL FIELDS AT  END OF TIME STEP    1, STRESS PERIOD   1
  ------------------------------------------------------------------------------

     CUMULATIVE VOLUMES      L**3       RATES FOR THIS TIME STEP      L**3/T
     ------------------                 ------------------------

           IN:                                      IN:
           ---                                      ---
               AG WELLS  =           0.0000                 AG WELLS  =           0.0000
      DIVERSION SEGMENTS =           0.0000        DIVERSION SEGMENTS =           0.0000
           GW IRRIGATION =           0.0000             GW IRRIGATION =           0.0000
           SW IRRIGATION =           0.0000             SW IRRIGATION =           0.0000
        SYSTEM LOSSES GW =           0.0000          SYSTEM LOSSES GW =           0.0000
        SYSTEM LOSSES SW =           0.0000          SYSTEM LOSSES SW =           0.0000

                TOTAL IN =           0.0000                  TOTAL IN =           0.0000

          OUT:                                     OUT:
          ----                                     ----
               AG WELLS  =           0.0000                 AG WELLS  =           0.0000
      DIVERSION SEGMENTS =           0.0000        DIVERSION SEGMENTS =           0.0000
           GW IRRIGATION =           0.0000             GW IRRIGATION =           0.0000
           SW IRRIGATION =           0.0000             SW IRRIGATION =           0.0000
        SYSTEM LOSSES GW =           0.0000          SYSTEM LOSSES GW =           0.0000
        SYSTEM LOSSES SW =           0.0000          SYSTEM LOSSES SW =           0.0000

               TOTAL OUT =           0.0000                 TOTAL OUT =           0.0000

                IN - OUT =           0.0000                  IN - OUT =           0.0000

     PERCENT DISCREPANCY =           0.00         PERCENT DISCREPANCY =           0.00




 HEAD WILL BE SAVED ON UNIT   62 AT END OF TIME STEP    1, STRESS PERIOD    1
1
  VOLUMETRIC BUDGET FOR ENTIRE MODEL AT END OF TIME STEP    1, STRESS PERIOD   1
  ------------------------------------------------------------------------------

     CUMULATIVE VOLUMES      L**3       RATES FOR THIS TIME STEP      L**3/T
     ------------------                 ------------------------

           IN:                                      IN:
           ---                                      ---
             STORAGE     =           0.0000               STORAGE     =           0.0000
       CONSTANT HEAD     =           0.0000         CONSTANT HEAD     =           0.0000
     HEAD DEP BOUNDS     =       24654.7383       HEAD DEP BOUNDS     =           0.2854
      STREAM LEAKAGE     =      894399.3125        STREAM LEAKAGE     =          10.3518
        UZF RECHARGE     =       73223.9531          UZF RECHARGE     =           0.8475
               GW ET     =           0.0000                 GW ET     =           0.0000
     SURFACE LEAKAGE     =           0.0000       SURFACE LEAKAGE     =           0.0000
           AG WELLS      =           0.0000             AG WELLS      =           0.0000

                TOTAL IN =      992278.0000                  TOTAL IN =          11.4847

          OUT:                                     OUT:
          ----                                     ----
             STORAGE     =           0.0000               STORAGE     =           0.0000
       CONSTANT HEAD     =           0.0000         CONSTANT HEAD     =           0.0000
     HEAD DEP BOUNDS     =       24823.4590       HEAD DEP BOUNDS     =           0.2873
      STREAM LEAKAGE     =      967454.4375        STREAM LEAKAGE     =          11.1974
        UZF RECHARGE     =           0.0000          UZF RECHARGE     =           0.0000
               GW ET     =           0.0000                 GW ET     =           0.0000
     SURFACE LEAKAGE     =           0.0000       SURFACE LEAKAGE     =           0.0000
           AG WELLS      =           0.0000             AG WELLS      =           0.0000

               TOTAL OUT =      992277.8750                 TOTAL OUT =          11.4847

                IN - OUT =           0.1250                  IN - OUT =       9.5367E-07

     PERCENT DISCREPANCY =           0.00         PERCENT DISCREPANCY =           0.00






         TIME SUMMARY AT END OF TIME STEP    1 IN STRESS PERIOD    1
                    SECONDS     MINUTES      HOURS       DAYS        YEARS
                    -----------------------------------------------------------
   TIME STEP LENGTH  86400.      1440.0      24.000      1.0000     2.73785E-03
 STRESS PERIOD TIME  86400.      1440.0      24.000      1.0000     2.73785E-03
         TOTAL TIME  86400.      1440.0      24.000      1.0000     2.73785E-03
1
1
                            STRESS PERIOD NO.    2, LENGTH =   2630000.    
                            -----------------------------------------------

                              NUMBER OF TIME STEPS =    30

                               MULTIPLIER FOR DELT =     1.000

                            INITIAL TIME STEP SIZE =   87666.66    

 REUSING NON-PARAMETER GHB CELLS FROM LAST STRESS PERIOD

      2 GHB CELLS

 REUSING STREAM SEGMENT DATA FROM LAST STRESS PERIOD



            AREAL INFILTRATION RATE
 READING ON UNIT   19 WITH FORMAT: (FREE)              

            1           2           3           4           5           6           7           8           9          10
 ........................................................................................................................
   1   1.0000E-10  2.0000E-10   0.000       0.000       0.000       0.000       0.000       0.000       0.000       0.000    
   2   2.0000E-10  1.0000E-10  2.0000E-10   0.000       0.000      8.0000E-10  8.0000E-10  5.0000E-10   0.000       0.000    
   3    0.000      5.0000E-10  1.0000E-10  1.0000E-10  8.0000E-10  8.0000E-10  5.0000E-10  5.0000E-10   0.000       0.000    
   4   8.0000E-10  5.0000E-10  1.0000E-10  1.0000E-10  1.0000E-10  1.0000E-10  1.0000E-10  1.0000E-10  2.0000E-10   0.000    
   5   8.0000E-10  5.0000E-10  1.0000E-10  1.0000E-10  1.0000E-10  1.0000E-10  1.0000E-10  1.0000E-10  1.0000E-10  1.0000E-10
   6   8.0000E-10  5.0000E-10  5.0000E-10  2.0000E-10  2.0000E-10  1.0000E-10  1.0000E-10  1.0000E-10  1.0000E-10  5.0000E-10
   7   8.0000E-10  5.0000E-10  5.0000E-10  2.0000E-10  2.0000E-10  1.0000E-10  1.0000E-10  2.0000E-10  2.0000E-10   0.000    
   8    0.000      5.0000E-10  5.0000E-10  2.0000E-10  2.0000E-10  1.0000E-10  1.0000E-10  2.0000E-10  5.0000E-10   0.000    
   9    0.000      5.0000E-10  5.0000E-10  2.0000E-10  2.0000E-10  1.0000E-10  1.0000E-10  2.0000E-10  5.0000E-10   0.000    
  10    0.000      5.0000E-10  5.0000E-10  2.0000E-10  2.0000E-10  1.0000E-10  1.0000E-10  2.0000E-10  5.0000E-10  8.0000E-10
  11    0.000      1.0000E-10  1.0000E-10  1.0000E-10  1.0000E-10  1.0000E-10  1.0000E-10  2.0000E-10  5.0000E-10   0.000    
  12   1.0000E-10  1.0000E-10  1.0000E-10  1.0000E-10  1.0000E-10  1.0000E-10  1.0000E-10  1.0000E-10  2.0000E-10   0.000    
  13   1.0000E-10  1.0000E-10  2.0000E-10  2.0000E-10  2.0000E-10  2.0000E-10  2.0000E-10  1.0000E-10  1.0000E-10   0.000    
  14    0.000      2.0000E-10  5.0000E-10  5.0000E-10  5.0000E-10  5.0000E-10  5.0000E-10  2.0000E-10  1.0000E-10   0.000    
  15    0.000       0.000      8.0000E-10  8.0000E-10  8.0000E-10  8.0000E-10   0.000       0.000       0.000       0.000    

                  ET RATE =  5.000000E-10

 USING ET EXTINCTION DEPTH FROM PREVIOUS STRESS PERIOD. CURRENT PERIOD IS:       2

 USING EXTINCTION WATER CONTENT FROM PREVIOUS STRESS PERIOD. CURRENT PERIOD IS:       2

 USING AIR ENTRY PRESSURE FROM PREVIOUS STRESS PERIOD. CURRENT PERIOD IS:       2

 USING ROOT PRESSURE HEAD FROM PREVIOUS STRESS PERIOD. CURRENT PERIOD IS:       2

 USING ROOT ACTIVITY FROM PREVIOUS STRESS PERIOD. CURRENT PERIOD IS:       2

 PROCESSING AG STRESS PERIOD DATA

 READING AG STRESS PERIOD DATA

 READING IRRIGATION WELL

 END PROCESSING AG STRESS PERIOD DATA OPTIONS
 
 SOLVING FOR HEAD 
                                                   Max.-Head-Change                         Max.-Flux-Residual
  Residual-Control   Outer-Iter.   Inner-Iter.     Column Row Layer    Maximum-Head-Change  Column Row Layer    Maximum-Flux-Residual          L2-NORM 
          0                 1           2             4   13     1       0.6100919041E-02       4   13    1         0.3498418340E+00      0.7241930586E+00
          0                 2           2             4   13     1      -0.5804860109E-03       4   13    1        -0.3422487416E-01      0.7535301527E-01
          0                 3           1             4   13     1       0.3890269108E-04       4   13    1         0.2358247986E-02      0.5142529305E-02

    ------------------------------------------------
       NWT REQUIRED            3 OUTER ITERATIONS 
       AND A TOTAL OF          5 INNER ITERATIONS.
    ------------------------------------------------

 NO OUTPUT CONTROL FOR STRESS PERIOD    2   TIME STEP    1
 
 SOLVING FOR HEAD 
                                                   Max.-Head-Change                         Max.-Flux-Residual
  Residual-Control   Outer-Iter.   Inner-Iter.     Column Row Layer    Maximum-Head-Change  Column Row Layer    Maximum-Flux-Residual          L2-NORM 
          0                 1           2             2   13     1       0.5599485135E-02       4   13    1         0.3174745166E+00      0.6799945182E+00
          0                 2           2             4   13     1      -0.5332830314E-03       4   13    1        -0.3142407070E-01      0.6665652851E-01
          0                 3           1             4   13     1       0.3579170672E-04       4   13    1         0.2168417202E-02      0.4540773980E-02

    ------------------------------------------------
       NWT REQUIRED            3 OUTER ITERATIONS 
       AND A TOTAL OF          5 INNER ITERATIONS.
    ------------------------------------------------

 NO OUTPUT CONTROL FOR STRESS PERIOD    2   TIME STEP    2
 
 SOLVING FOR HEAD 
                                                   Max.-Head-Change                         Max.-Flux-Residual
  Residual-Control   Outer-Iter.   Inner-Iter.     Column Row Layer    Maximum-Head-Change  Column Row Layer    Maximum-Flux-Residual          L2-NORM 
          0                 1           2             2   13     1       0.5185884406E-02       2   13    1         0.2917485494E+00      0.6422044993E+00
          0                 2           2             4   13     1      -0.4838831011E-03       4   13    1        -0.2849660932E-01      0.6300684429E-01
          0                 3           1             4   13     1       0.3247889756E-04       4   13    1         0.1966573949E-02      0.4297037243E-02

    ------------------------------------------------
       NWT REQUIRED            3 OUTER ITERATIONS 
       AND A TOTAL OF          5 INNER ITERATIONS.
    ------------------------------------------------

 NO OUTPUT CONTROL FOR STRESS PERIOD    2   TIME STEP    3
 
 SOLVING FOR HEAD 
                                                   Max.-Head-Change                         Max.-Flux-Residual
  Residual-Control   Outer-Iter.   Inner-Iter.     Column Row Layer    Maximum-Head-Change  Column Row Layer    Maximum-Flux-Residual          L2-NORM 
          0                 1           2             2   13     1       0.4803154029E-02       2   13    1         0.2701873240E+00      0.6081803872E+00
          0                 2           2             2   13     1      -0.4473179284E-03       2   13    1        -0.2586578846E-01      0.5972310199E-01
          0                 3           1             4   13     1       0.2948219716E-04       4   13    1         0.1784025593E-02      0.4078588667E-02

    ------------------------------------------------
       NWT REQUIRED            3 OUTER ITERATIONS 
       AND A TOTAL OF          5 INNER ITERATIONS.
    ------------------------------------------------

 NO OUTPUT CONTROL FOR STRESS PERIOD    2   TIME STEP    4
 
 SOLVING FOR HEAD 
                                                   Max.-Head-Change                         Max.-Flux-Residual
  Residual-Control   Outer-Iter.   Inner-Iter.     Column Row Layer    Maximum-Head-Change  Column Row Layer    Maximum-Flux-Residual          L2-NORM 
          0                 1           2             2   13     1       0.4449040972E-02       2   13    1         0.2502395760E+00      0.5775475204E+00
          0                 2           2             2   13     1      -0.4144801037E-03       2   13    1        -0.2396415219E-01      0.5676821826E-01
          0                 3           1             4   13     1       0.2676866390E-04       4   13    1         0.1618800686E-02      0.3881521732E-02

    ------------------------------------------------
       NWT REQUIRED            3 OUTER ITERATIONS 
       AND A TOTAL OF          5 INNER ITERATIONS.
    ------------------------------------------------

 NO OUTPUT CONTROL FOR STRESS PERIOD    2   TIME STEP    5
 
 SOLVING FOR HEAD 
                                                   Max.-Head-Change                         Max.-Flux-Residual
  Residual-Control   Outer-Iter.   Inner-Iter.     Column Row Layer    Maximum-Head-Change  Column Row Layer    Maximum-Flux-Residual          L2-NORM 
          0                 1           2             2   13     1       0.4121446218E-02       2   13    1         0.2317868444E+00      0.5499873162E+00
          0                 2           2             2   13     1      -0.3841207992E-03       2   13    1        -0.2220618270E-01      0.5411296304E-01
          0                 3           1             2    2     1       0.2466198281E-04       4   13    1         0.1471168053E-02      0.3706003663E-02

    ------------------------------------------------
       NWT REQUIRED            3 OUTER ITERATIONS 
       AND A TOTAL OF          5 INNER ITERATIONS.
    ------------------------------------------------

 NO OUTPUT CONTROL FOR STRESS PERIOD    2   TIME STEP    6
 
 SOLVING FOR HEAD 
                                                   Max.-Head-Change                         Max.-Flux-Residual
  Residual-Control   Outer-Iter.   Inner-Iter.     Column Row Layer    Maximum-Head-Change  Column Row Layer    Maximum-Flux-Residual          L2-NORM 
          0                 1           2             2   13     1       0.3818221148E-02       2   13    1         0.2147078483E+00      0.5251892090E+00
          0                 2           2             2    2     1      -0.3594198925E-03       2   13    1        -0.2057585153E-01      0.5172403295E-01
          0                 3           1             2    2     1       0.2447515648E-04       2   13    1         0.1355394319E-02      0.3547183221E-02

    ------------------------------------------------
       NWT REQUIRED            3 OUTER ITERATIONS 
       AND A TOTAL OF          5 INNER ITERATIONS.
    ------------------------------------------------

 NO OUTPUT CONTROL FOR STRESS PERIOD    2   TIME STEP    7
 
 SOLVING FOR HEAD 
                                                   Max.-Head-Change                         Max.-Flux-Residual
  Residual-Control   Outer-Iter.   Inner-Iter.     Column Row Layer    Maximum-Head-Change  Column Row Layer    Maximum-Flux-Residual          L2-NORM 
          0                 1           2             2    2     1       0.3667085789E-02       2   13    1         0.1989108451E+00      0.5028814641E+00
          0                 2           2             2    2     1      -0.3567080353E-03       2    2    1        -0.1917041004E-01      0.4957487384E-01
          0                 3           1             2    2     1       0.2429048908E-04       2    2    1         0.1341928919E-02      0.3403801657E-02

    ------------------------------------------------
       NWT REQUIRED            3 OUTER ITERATIONS 
       AND A TOTAL OF          5 INNER ITERATIONS.
    ------------------------------------------------

 NO OUTPUT CONTROL FOR STRESS PERIOD    2   TIME STEP    8
 
 SOLVING FOR HEAD 
                                                   Max.-Head-Change                         Max.-Flux-Residual
  Residual-Control   Outer-Iter.   Inner-Iter.     Column Row Layer    Maximum-Head-Change  Column Row Layer    Maximum-Flux-Residual          L2-NORM 
          0                 1           2             2    2     1       0.3639701008E-02       2    2    1         0.1902627778E+00      0.4828023298E+00
          0                 2           2             2    2     1      -0.3540442310E-03       2    2    1        -0.1902631586E-01      0.4764139681E-01
          0                 3           1             2    2     1       0.2410909393E-04       2    2    1         0.1331842321E-02      0.3275277796E-02

    ------------------------------------------------
       NWT REQUIRED            3 OUTER ITERATIONS 
       AND A TOTAL OF          5 INNER ITERATIONS.
    ------------------------------------------------

 NO OUTPUT CONTROL FOR STRESS PERIOD    2   TIME STEP    9
 
 SOLVING FOR HEAD 
                                                   Max.-Head-Change                         Max.-Flux-Residual
  Residual-Control   Outer-Iter.   Inner-Iter.     Column Row Layer    Maximum-Head-Change  Column Row Layer    Maximum-Flux-Residual          L2-NORM 
          0                 1           2             2    2     1       0.3612629094E-02       2    2    1         0.1888383547E+00      0.4647309080E+00
          0                 2           2             2    2     1      -0.3514108598E-03       2    2    1        -0.1888387273E-01      0.4590245170E-01
          0                 3           1             2    2     1       0.2392977109E-04       2    2    1         0.1321871310E-02      0.3160637835E-02

    ------------------------------------------------
       NWT REQUIRED            3 OUTER ITERATIONS 
       AND A TOTAL OF          5 INNER ITERATIONS.
    ------------------------------------------------

 NO OUTPUT CONTROL FOR STRESS PERIOD    2   TIME STEP   10
 
 SOLVING FOR HEAD 
                                                   Max.-Head-Change                         Max.-Flux-Residual
  Residual-Control   Outer-Iter.   Inner-Iter.     Column Row Layer    Maximum-Head-Change  Column Row Layer    Maximum-Flux-Residual          L2-NORM 
          0                 1           2             2    2     1       0.3585951204E-02       2    2    1         0.1874347047E+00      0.4484530803E+00
          0                 2           2             2    2     1      -0.3488158168E-03       2    2    1        -0.1874350697E-01      0.4433586465E-01
          0                 3           1             2    2     1       0.2375305852E-04       2    2    1         0.1312045692E-02      0.3055843380E-02

    ------------------------------------------------
       NWT REQUIRED            3 OUTER ITERATIONS 
       AND A TOTAL OF          5 INNER ITERATIONS.
    ------------------------------------------------

 NO OUTPUT CONTROL FOR STRESS PERIOD    2   TIME STEP   11
 
 SOLVING FOR HEAD 
                                                   Max.-Head-Change                         Max.-Flux-Residual
  Residual-Control   Outer-Iter.   Inner-Iter.     Column Row Layer    Maximum-Head-Change  Column Row Layer    Maximum-Flux-Residual          L2-NORM 
          0                 1           2             2    2     1       0.3559571552E-02       2    2    1         0.1860468156E+00      0.4337718088E+00
          0                 2           2             2    2     1      -0.3462497853E-03       2    2    1        -0.1860471735E-01      0.4292387309E-01
          0                 3           1             2    2     1       0.2357832146E-04       2    2    1         0.1302330426E-02      0.2962625798E-02

    ------------------------------------------------
       NWT REQUIRED            3 OUTER ITERATIONS 
       AND A TOTAL OF          5 INNER ITERATIONS.
    ------------------------------------------------

 NO OUTPUT CONTROL FOR STRESS PERIOD    2   TIME STEP   12
 
 SOLVING FOR HEAD 
                                                   Max.-Head-Change                         Max.-Flux-Residual
  Residual-Control   Outer-Iter.   Inner-Iter.     Column Row Layer    Maximum-Head-Change  Column Row Layer    Maximum-Flux-Residual          L2-NORM 
          0                 1           2             2    2     1       0.3533663503E-02       2    2    1         0.1846837273E+00      0.4205329170E+00
          0                 2           2             2    2     1      -0.3437296279E-03       2    2    1        -0.1846840780E-01      0.4164860976E-01
          0                 3           1             2    2     1       0.2340670825E-04       2    2    1         0.1292788776E-02      0.2877611772E-02

    ------------------------------------------------
       NWT REQUIRED            3 OUTER ITERATIONS 
       AND A TOTAL OF          5 INNER ITERATIONS.
    ------------------------------------------------

 NO OUTPUT CONTROL FOR STRESS PERIOD    2   TIME STEP   13
 
 SOLVING FOR HEAD 
                                                   Max.-Head-Change                         Max.-Flux-Residual
  Residual-Control   Outer-Iter.   Inner-Iter.     Column Row Layer    Maximum-Head-Change  Column Row Layer    Maximum-Flux-Residual          L2-NORM 
          0                 1           2             2    2     1       0.3508043674E-02       2    2    1         0.1833358706E+00      0.4085690191E+00
          0                 2           2             2    2     1      -0.3412375067E-03       2    2    1        -0.1833362145E-01      0.4049741654E-01
          0                 3           1             2    2     1       0.2323700428E-04       2    2    1         0.1283353723E-02      0.2801427160E-02

    ------------------------------------------------
       NWT REQUIRED            3 OUTER ITERATIONS 
       AND A TOTAL OF          5 INNER ITERATIONS.
    ------------------------------------------------

 NO OUTPUT CONTROL FOR STRESS PERIOD    2   TIME STEP   14
 
 SOLVING FOR HEAD 
                                                   Max.-Head-Change                         Max.-Flux-Residual
  Residual-Control   Outer-Iter.   Inner-Iter.     Column Row Layer    Maximum-Head-Change  Column Row Layer    Maximum-Flux-Residual          L2-NORM 
          0                 1           2             2    2     1       0.3482793688E-02       2    2    1         0.1820075095E+00      0.3977359959E+00
          0                 2           2             2    2     1      -0.3387813617E-03       2    2    1        -0.1820078465E-01      0.3945385013E-01
          0                 3           1             2    2     1       0.2306975036E-04       2    2    1         0.1274055180E-02      0.2732021932E-02

    ------------------------------------------------
       NWT REQUIRED            3 OUTER ITERATIONS 
       AND A TOTAL OF          5 INNER ITERATIONS.
    ------------------------------------------------

 NO OUTPUT CONTROL FOR STRESS PERIOD    2   TIME STEP   15
 
 SOLVING FOR HEAD 
                                                   Max.-Head-Change                         Max.-Flux-Residual
  Residual-Control   Outer-Iter.   Inner-Iter.     Column Row Layer    Maximum-Head-Change  Column Row Layer    Maximum-Flux-Residual          L2-NORM 
          0                 1           2             2    2     1       0.3457907880E-02       2    2    1         0.1806983244E+00      0.3879262877E+00
          0                 2           2             2    2     1      -0.3363606409E-03       2    2    1        -0.1806986548E-01      0.3850829212E-01
          0                 3           1             2    2     1       0.2290490790E-04       2    2    1         0.1264890818E-02      0.2668386228E-02

    ------------------------------------------------
       NWT REQUIRED            3 OUTER ITERATIONS 
       AND A TOTAL OF          5 INNER ITERATIONS.
    ------------------------------------------------

 NO OUTPUT CONTROL FOR STRESS PERIOD    2   TIME STEP   16
 
 SOLVING FOR HEAD 
                                                   Max.-Head-Change                         Max.-Flux-Residual
  Residual-Control   Outer-Iter.   Inner-Iter.     Column Row Layer    Maximum-Head-Change  Column Row Layer    Maximum-Flux-Residual          L2-NORM 
          0                 1           2             2    2     1       0.3433380672E-02       2    2    1         0.1794080215E+00      0.3790053448E+00
          0                 2           2             2    2     1      -0.3339748030E-03       2    2    1        -0.1794083456E-01      0.3764764780E-01
          0                 3           1             2    2     1       0.2274244116E-04       2    2    1         0.1255858658E-02      0.2612327691E-02

    ------------------------------------------------
       NWT REQUIRED            3 OUTER ITERATIONS 
       AND A TOTAL OF          5 INNER ITERATIONS.
    ------------------------------------------------

 NO OUTPUT CONTROL FOR STRESS PERIOD    2   TIME STEP   17
 
 SOLVING FOR HEAD 
                                                   Max.-Head-Change                         Max.-Flux-Residual
  Residual-Control   Outer-Iter.   Inner-Iter.     Column Row Layer    Maximum-Head-Change  Column Row Layer    Maximum-Flux-Residual          L2-NORM 
          0                 1           2             2    2     1       0.3409205831E-02       2    2    1         0.1781363116E+00      0.3708959238E+00
          0                 2           2             2    2     1      -0.3316232403E-03       2    2    1        -0.1781366293E-01      0.3686551279E-01
          0                 3           1             2    2     1       0.2258230874E-04       2    2    1         0.1246956648E-02      0.2559373117E-02

    ------------------------------------------------
       NWT REQUIRED            3 OUTER ITERATIONS 
       AND A TOTAL OF          5 INNER ITERATIONS.
    ------------------------------------------------

 NO OUTPUT CONTROL FOR STRESS PERIOD    2   TIME STEP   18
 
 SOLVING FOR HEAD 
                                                   Max.-Head-Change                         Max.-Flux-Residual
  Residual-Control   Outer-Iter.   Inner-Iter.     Column Row Layer    Maximum-Head-Change  Column Row Layer    Maximum-Flux-Residual          L2-NORM 
          0                 1           2             2    2     1       0.3385290862E-02       2    2    1         0.1768783193E+00      0.3634934776E+00
          0                 2           2             2    2     1      -0.3292969569E-03       2    2    1        -0.1768786309E-01      0.3614994633E-01
          0                 3           1             2    2     1       0.2242389740E-04       2    2    1         0.1238150655E-02      0.2512089789E-02

    ------------------------------------------------
       NWT REQUIRED            3 OUTER ITERATIONS 
       AND A TOTAL OF          5 INNER ITERATIONS.
    ------------------------------------------------

 NO OUTPUT CONTROL FOR STRESS PERIOD    2   TIME STEP   19
 
 SOLVING FOR HEAD 
                                                   Max.-Head-Change                         Max.-Flux-Residual
  Residual-Control   Outer-Iter.   Inner-Iter.     Column Row Layer    Maximum-Head-Change  Column Row Layer    Maximum-Flux-Residual          L2-NORM 
          0                 1           2             2    2     1       0.3361717890E-02       2    2    1         0.1756383533E+00      0.3567232374E+00
          0                 2           2             2    2     1      -0.3270039399E-03       2    2    1        -0.1756386587E-01      0.3549550141E-01
          0                 3           1             2    2     1       0.2226775150E-04       2    2    1         0.1229470848E-02      0.2468656893E-02

    ------------------------------------------------
       NWT REQUIRED            3 OUTER ITERATIONS 
       AND A TOTAL OF          5 INNER ITERATIONS.
    ------------------------------------------------

 NO OUTPUT CONTROL FOR STRESS PERIOD    2   TIME STEP   20
 
 SOLVING FOR HEAD 
                                                   Max.-Head-Change                         Max.-Flux-Residual
  Residual-Control   Outer-Iter.   Inner-Iter.     Column Row Layer    Maximum-Head-Change  Column Row Layer    Maximum-Flux-Residual          L2-NORM 
          0                 1           2             2    2     1       0.3338481753E-02       2    2    1         0.1744161195E+00      0.3505173767E+00
          0                 2           2             2    2     1      -0.3247436885E-03       2    2    1        -0.1744164192E-01      0.3489453705E-01
          0                 3           1             2    2     1       0.2211383624E-04       2    2    1         0.1220915152E-02      0.2428186917E-02

    ------------------------------------------------
       NWT REQUIRED            3 OUTER ITERATIONS 
       AND A TOTAL OF          5 INNER ITERATIONS.
    ------------------------------------------------

 NO OUTPUT CONTROL FOR STRESS PERIOD    2   TIME STEP   21
 
 SOLVING FOR HEAD 
                                                   Max.-Head-Change                         Max.-Flux-Residual
  Residual-Control   Outer-Iter.   Inner-Iter.     Column Row Layer    Maximum-Head-Change  Column Row Layer    Maximum-Flux-Residual          L2-NORM 
          0                 1           2             2    2     1       0.3315576565E-02       2    2    1         0.1732113502E+00      0.3448121673E+00
          0                 2           2             2    2     1      -0.3225156302E-03       2    2    1        -0.1732116441E-01      0.3434185142E-01
          0                 3           1             2    2     1       0.2196211495E-04       2    2    1         0.1212481770E-02      0.2391410482E-02

    ------------------------------------------------
       NWT REQUIRED            3 OUTER ITERATIONS 
       AND A TOTAL OF          5 INNER ITERATIONS.
    ------------------------------------------------

 NO OUTPUT CONTROL FOR STRESS PERIOD    2   TIME STEP   22
 
 SOLVING FOR HEAD 
                                                   Max.-Head-Change                         Max.-Flux-Residual
  Residual-Control   Outer-Iter.   Inner-Iter.     Column Row Layer    Maximum-Head-Change  Column Row Layer    Maximum-Flux-Residual          L2-NORM 
          0                 1           2             2    2     1       0.3292997315E-02       2    2    1         0.1720237402E+00      0.3395514357E+00
          0                 2           2             2    2     1      -0.3203192764E-03       2    2    1        -0.1720240288E-01      0.3383130430E-01
          0                 3           1             2    2     1       0.2181255093E-04       2    2    1         0.1204168445E-02      0.2356589915E-02

    ------------------------------------------------
       NWT REQUIRED            3 OUTER ITERATIONS 
       AND A TOTAL OF          5 INNER ITERATIONS.
    ------------------------------------------------

 NO OUTPUT CONTROL FOR STRESS PERIOD    2   TIME STEP   23
 
 SOLVING FOR HEAD 
                                                   Max.-Head-Change                         Max.-Flux-Residual
  Residual-Control   Outer-Iter.   Inner-Iter.     Column Row Layer    Maximum-Head-Change  Column Row Layer    Maximum-Flux-Residual          L2-NORM 
          0                 1           2             2    2     1       0.3270656481E-02       2    2    1         0.1708487113E+00      0.3346879897E+00
          0                 2           2             2    2     1      -0.3181461140E-03       2    2    1        -0.1708489944E-01      0.3335830768E-01
          0                 3           1             2    2     1       0.2166456671E-04       2    2    1         0.1195943205E-02      0.2325026302E-02

    ------------------------------------------------
       NWT REQUIRED            3 OUTER ITERATIONS 
       AND A TOTAL OF          5 INNER ITERATIONS.
    ------------------------------------------------

 NO OUTPUT CONTROL FOR STRESS PERIOD    2   TIME STEP   24
 
 SOLVING FOR HEAD 
                                                   Max.-Head-Change                         Max.-Flux-Residual
  Residual-Control   Outer-Iter.   Inner-Iter.     Column Row Layer    Maximum-Head-Change  Column Row Layer    Maximum-Flux-Residual          L2-NORM 
          0                 1           2             2    2     1       0.3248714730E-02       2    2    1         0.1696946811E+00      0.3301814118E+00
          0                 2           2             2    2     1      -0.3160117719E-03       2    2    1        -0.1696949589E-01      0.3291993999E-01
          0                 3           1             2    2     1       0.2151922589E-04       2    2    1         0.1187864950E-02      0.2295240678E-02

    ------------------------------------------------
       NWT REQUIRED            3 OUTER ITERATIONS 
       AND A TOTAL OF          5 INNER ITERATIONS.
    ------------------------------------------------

 NO OUTPUT CONTROL FOR STRESS PERIOD    2   TIME STEP   25
 
 SOLVING FOR HEAD 
                                                   Max.-Head-Change                         Max.-Flux-Residual
  Residual-Control   Outer-Iter.   Inner-Iter.     Column Row Layer    Maximum-Head-Change  Column Row Layer    Maximum-Flux-Residual          L2-NORM 
          0                 1           2             2    2     1       0.3226996200E-02       2    2    1         0.1685524713E+00      0.3259930173E+00
          0                 2           2             2    2     1      -0.3138991437E-03       2    2    1        -0.1685527439E-01      0.3251194433E-01
          0                 3           1             2    2     1       0.2137536404E-04       2    2    1         0.1179869468E-02      0.2267923572E-02

    ------------------------------------------------
       NWT REQUIRED            3 OUTER ITERATIONS 
       AND A TOTAL OF          5 INNER ITERATIONS.
    ------------------------------------------------

 NO OUTPUT CONTROL FOR STRESS PERIOD    2   TIME STEP   26
 
 SOLVING FOR HEAD 
                                                   Max.-Head-Change                         Max.-Flux-Residual
  Residual-Control   Outer-Iter.   Inner-Iter.     Column Row Layer    Maximum-Head-Change  Column Row Layer    Maximum-Flux-Residual          L2-NORM 
          0                 1           2             2    2     1       0.3205584433E-02       2    2    1         0.1674263883E+00      0.3220846077E+00
          0                 2           2             2    2     1      -0.3118163549E-03       2    2    1        -0.1674266559E-01      0.3213058254E-01
          0                 3           1             2    2     1       0.2123353379E-04       2    2    1         0.1171986842E-02      0.2242117281E-02

    ------------------------------------------------
       NWT REQUIRED            3 OUTER ITERATIONS 
       AND A TOTAL OF          5 INNER ITERATIONS.
    ------------------------------------------------

 NO OUTPUT CONTROL FOR STRESS PERIOD    2   TIME STEP   27
 
 SOLVING FOR HEAD 
                                                   Max.-Head-Change                         Max.-Flux-Residual
  Residual-Control   Outer-Iter.   Inner-Iter.     Column Row Layer    Maximum-Head-Change  Column Row Layer    Maximum-Flux-Residual          L2-NORM 
          0                 1           2             2    2     1       0.3184474025E-02       2    2    1         0.1663162106E+00      0.3184304815E+00
          0                 2           2             2    2     1      -0.3097628807E-03       2    2    1        -0.1663164734E-01      0.3177337357E-01
          0                 3           1             2    2     1       0.2109369989E-04       2    2    1         0.1164215575E-02      0.2217224628E-02

    ------------------------------------------------
       NWT REQUIRED            3 OUTER ITERATIONS 
       AND A TOTAL OF          5 INNER ITERATIONS.
    ------------------------------------------------

 NO OUTPUT CONTROL FOR STRESS PERIOD    2   TIME STEP   28
 
 SOLVING FOR HEAD 
                                                   Max.-Head-Change                         Max.-Flux-Residual
  Residual-Control   Outer-Iter.   Inner-Iter.     Column Row Layer    Maximum-Head-Change  Column Row Layer    Maximum-Flux-Residual          L2-NORM 
          0                 1           2             2    2     1       0.3163660535E-02       2    2    1         0.1652216580E+00      0.3150071140E+00
          0                 2           2             2    2     1      -0.3077382883E-03       2    2    1        -0.1652219160E-01      0.3143872281E-01
          0                 3           1             2    2     1       0.2095583274E-04       2    2    1         0.1156553659E-02      0.2195039549E-02

    ------------------------------------------------
       NWT REQUIRED            3 OUTER ITERATIONS 
       AND A TOTAL OF          5 INNER ITERATIONS.
    ------------------------------------------------

 NO OUTPUT CONTROL FOR STRESS PERIOD    2   TIME STEP   29
 
 SOLVING FOR HEAD 
                                                   Max.-Head-Change                         Max.-Flux-Residual
  Residual-Control   Outer-Iter.   Inner-Iter.     Column Row Layer    Maximum-Head-Change  Column Row Layer    Maximum-Flux-Residual          L2-NORM 
          0                 1           2             2    2     1       0.3143052426E-02       2    2    1         0.1641379469E+00      0.3117834489E+00
          0                 2           2             2    2     1      -0.3057336742E-03       2    2    1        -0.1641382002E-01      0.3112282237E-01
          0                 3           1             2    2     1       0.2081932575E-04       2    2    1         0.1148967647E-02      0.2173514920E-02

    ------------------------------------------------
       NWT REQUIRED            3 OUTER ITERATIONS 
       AND A TOTAL OF          5 INNER ITERATIONS.
    ------------------------------------------------

 NO OUTPUT CONTROL FOR STRESS PERIOD    2   TIME STEP   30



 STREAM LISTING     PERIOD      2   STEP       30

 LAYER ROW COL. STREAM  RCH.  FLOW INTO     FLOW TO   FLOW OUT OF   OVRLND.     DIRECT     STREAM       STREAM     STREAM     STREAM   STREAMBED  STREAMBED
                SEG.NO.  NO.  STRM. RCH.    AQUIFER    STRM. RCH.    RUNOFF     PRECIP       ET          HEAD       DEPTH      WIDTH   CONDCTNC.   GRADIENT

   1    1    1     1     1    2.2000E+01  2.3088E-01   2.1769E+01  0.000E+00  0.000E+00  0.000E+00  1.09418E+03  1.132E+00  1.242E+01  5.588E-02  1.377E+00
   1    2    2     1     2    2.1769E+01  3.5689E-01   2.1412E+01  0.000E+00  0.000E+00  0.000E+00  1.08919E+03  1.127E+00  1.235E+01  8.648E-02  1.376E+00
   1    3    3     1     3    2.1412E+01  3.0372E-01   2.1109E+01  0.000E+00  0.000E+00  0.000E+00  1.08354E+03  1.121E+00  1.228E+01  7.369E-02  1.374E+00
   1    3    4     1     4    2.1109E+01  2.7914E-01   2.0829E+01  0.000E+00  0.000E+00  0.000E+00  1.07852E+03  1.117E+00  1.222E+01  6.781E-02  1.372E+00
   1    4    5     2     1    1.8829E+01  3.1306E-01   1.8516E+01  0.000E+00  0.000E+00  0.000E+00  1.07295E+03  1.014E+00  1.200E+01  7.800E-02  1.338E+00
   1    5    6     2     2    1.8516E+01  2.4027E-01   1.8276E+01  0.000E+00  0.000E+00  0.000E+00  1.06751E+03  1.005E+00  1.200E+01  6.000E-02  1.335E+00
   1    6    6     2     3    1.8276E+01  2.3980E-01   1.8036E+01  0.000E+00  0.000E+00  0.000E+00  1.06279E+03  9.967E-01  1.200E+01  6.000E-02  1.332E+00
   1    7    6     2     4    1.8036E+01  2.3933E-01   1.7797E+01  0.000E+00  0.000E+00  0.000E+00  1.05806E+03  9.888E-01  1.200E+01  6.000E-02  1.330E+00
   1    8    6     2     5    1.7797E+01  2.3885E-01   1.7558E+01  0.000E+00  0.000E+00  0.000E+00  1.05334E+03  9.808E-01  1.200E+01  6.000E-02  1.327E+00
   1    3    5     3     1    2.0000E+00  2.8252E-01   1.7175E+00  0.000E+00  0.000E+00  0.000E+00  1.07555E+03  1.909E+00  9.636E+00  7.227E-02  1.955E+00
   1    3    6     3     2    1.7175E+00  2.4905E-01   1.4684E+00  0.000E+00  0.000E+00  0.000E+00  1.07264E+03  1.727E+00  8.909E+00  6.682E-02  1.864E+00
   1    3    7     3     3    1.4684E+00  1.9718E-01   1.2712E+00  0.000E+00  0.000E+00  0.000E+00  1.06987E+03  1.555E+00  8.218E+00  5.547E-02  1.777E+00
   1    4    8     3     4    1.2712E+00  2.2567E-01   1.0456E+00  0.000E+00  0.000E+00  0.000E+00  1.06682E+03  1.364E+00  7.455E+00  6.709E-02  1.682E+00
   1    5    8     3     5    1.0456E+00  1.5790E-01   8.8768E-01  0.000E+00  0.000E+00  0.000E+00  1.06362E+03  1.164E+00  6.655E+00  4.991E-02  1.582E+00
   1    6    8     3     6    8.8768E-01  5.5980E-02   8.3170E-01  0.000E+00  0.000E+00  0.000E+00  1.06158E+03  1.036E+00  6.145E+00  1.844E-02  1.518E+00
   1    5   10     4     1    1.0000E+01  9.0919E-02   9.9091E+00  0.000E+00  0.000E+00  0.000E+00  1.07836E+03  6.368E-01  1.000E+01  2.500E-02  1.212E+00
   1    5    9     4     2    9.9091E+00  1.8158E-01   9.7275E+00  0.000E+00  0.000E+00  0.000E+00  1.07154E+03  6.315E-01  1.000E+01  5.000E-02  1.211E+00
   1    6    8     4     3    9.7275E+00  1.2689E-01   9.6006E+00  0.000E+00  0.000E+00  0.000E+00  1.06381E+03  6.256E-01  1.000E+01  3.500E-02  1.209E+00
   1    6    8     5     1    1.0432E+01  2.2686E-01   1.0205E+01  0.000E+00  0.000E+00  0.000E+00  1.05868E+03  6.790E-01  1.542E+01  6.166E-02  1.226E+00
   1    7    7     5     2    1.0205E+01  2.7894E-01   9.9265E+00  0.000E+00  0.000E+00  0.000E+00  1.05417E+03  6.732E-01  1.519E+01  7.594E-02  1.224E+00
   1    8    7     5     3    9.9265E+00  1.9221E-01   9.7343E+00  0.000E+00  0.000E+00  0.000E+00  1.04992E+03  6.676E-01  1.497E+01  5.241E-02  1.223E+00
   1    8    6     5     4    9.7343E+00  1.3577E-01   9.5985E+00  0.000E+00  0.000E+00  0.000E+00  1.04691E+03  6.637E-01  1.482E+01  3.706E-02  1.221E+00
   1    9    6     6     1    2.7157E+01  2.5677E-01   2.6900E+01  0.000E+00  0.000E+00  0.000E+00  1.04401E+03  1.280E+00  1.200E+01  6.000E-02  1.427E+00
   1   10    7     6     2    2.6900E+01  2.5634E-01   2.6644E+01  0.000E+00  0.000E+00  0.000E+00  1.03945E+03  1.272E+00  1.200E+01  6.000E-02  1.424E+00
   1   11    7     6     3    2.6644E+01  2.5590E-01   2.6388E+01  0.000E+00  0.000E+00  0.000E+00  1.03490E+03  1.265E+00  1.200E+01  6.000E-02  1.422E+00
   1   12    7     6     4    2.6388E+01  2.5546E-01   2.6132E+01  0.000E+00  0.000E+00  0.000E+00  1.03035E+03  1.258E+00  1.200E+01  6.000E-02  1.419E+00
   1   13    7     6     5    2.6132E+01  1.0938E-03   2.6131E+01  0.000E+00  0.000E+00  0.000E+00  1.02716E+03  1.254E+00  1.200E+01  2.400E-02  1.519E-02
   1   14    9     7     1    1.5000E+02  1.3306E+00   1.4867E+02  0.000E+00  0.000E+00  0.000E+00  1.03987E+03  2.288E+00  5.529E+01  5.593E-01  7.930E-01
   1   13    8     7     2    1.4867E+02  1.8228E+00   1.4685E+02  0.000E+00  0.000E+00  0.000E+00  1.03478E+03  2.279E+00  5.526E+01  6.148E-01  9.883E-01
   1   13    7     7     3    1.4685E+02  1.4367E+00   1.4541E+02  0.000E+00  0.000E+00  0.000E+00  1.02969E+03  2.271E+00  5.522E+01  5.585E-01  8.575E-01
   1   13    6     8     1    1.7154E+02  8.8336E-01   1.7066E+02  0.000E+00  0.000E+00  0.000E+00  1.02483E+03  2.959E+00  4.291E+01  4.373E-01  6.734E-01
   1   13    5     8     2    1.7066E+02  1.2909E-01   1.7053E+02  0.000E+00  0.000E+00  0.000E+00  1.01858E+03  2.956E+00  4.286E+01  4.368E-01  9.852E-02
   1   13    4     8     3    1.7053E+02 -2.6157E+00   1.7314E+02  0.000E+00  0.000E+00  0.000E+00  1.01234E+03  2.964E+00  4.298E+01  4.380E+00 -1.991E-01
   1   13    3     8     4    1.7314E+02 -3.7119E+00   1.7686E+02  0.000E+00  0.000E+00  0.000E+00  1.00611E+03  2.984E+00  4.327E+01  4.410E+00 -2.806E-01
   1   13    2     8     5    1.7686E+02 -2.5514E+00   1.7941E+02  0.000E+00  0.000E+00  0.000E+00  9.99879E+02  3.004E+00  4.356E+01  4.439E+00 -1.916E-01
   1   13    1     8     6    1.7941E+02 -1.9322E+00   1.8134E+02  0.000E+00  0.000E+00  0.000E+00  9.94893E+02  3.019E+00  4.377E+01  2.676E+00 -2.407E-01





UNSATURATED ZONE PACKAGE VOLUMETRIC BUDGET FOR  TIME STEP    30 STRESS PERIOD    2
  ------------------------------------------------------------------------------



     CUMULATIVE VOLUMES      L**3       RATES FOR THIS TIME STEP      L**3/T
     ------------------                 ------------------------

           IN:                                      IN:
           ---                                      ---
        INFILTRATION =     2302148.8727          INFILTRATION =           0.8475

          OUT:                                     OUT:
          ----                                     ----
              UZF ET =     1972459.2683                UZF ET =           0.7500
        UZF RECHARGE =       73224.0000          UZF RECHARGE =       0.0000E+00

            IN - OUT =      256465.6044              IN - OUT =       9.7500E-02

          STORAGE:                                 STORAGE:
          --------                                 --------
      STORAGE CHANGE =      256465.6278        STORAGE CHANGE =       9.7500E-02

 PERCENT DISCREPANCY IS DIFFERENCE BETWEEN IN-OUT MINUS CHANGE IN STORAGE
 DIVIDED BY THE AVERAGE OF IN AND OUT TIMES 100

 PERCENT DISCREPANCY =          -0.00     PERCENT DISCREPANCY =           0.00






1
  VOLUMETRIC BUDGET FOR AGRICULTURAL FIELDS AT  END OF TIME STEP   30, STRESS PERIOD   2
  ------------------------------------------------------------------------------

     CUMULATIVE VOLUMES      L**3       RATES FOR THIS TIME STEP      L**3/T
     ------------------                 ------------------------

           IN:                                      IN:
           ---                                      ---
               AG WELLS  =           0.0000                 AG WELLS  =           0.0000
      DIVERSION SEGMENTS =           0.0000        DIVERSION SEGMENTS =           0.0000
           GW IRRIGATION =           0.0000             GW IRRIGATION =           0.0000
           SW IRRIGATION =           0.0000             SW IRRIGATION =           0.0000
        SYSTEM LOSSES GW =           0.0000          SYSTEM LOSSES GW =           0.0000
        SYSTEM LOSSES SW =           0.0000          SYSTEM LOSSES SW =           0.0000

                TOTAL IN =           0.0000                  TOTAL IN =           0.0000

          OUT:                                     OUT:
          ----                                     ----
               AG WELLS  =           0.0000                 AG WELLS  =           0.0000
      DIVERSION SEGMENTS =           0.0000        DIVERSION SEGMENTS =           0.0000
           GW IRRIGATION =           0.0000             GW IRRIGATION =           0.0000
           SW IRRIGATION =           0.0000             SW IRRIGATION =           0.0000
        SYSTEM LOSSES GW =           0.0000          SYSTEM LOSSES GW =           0.0000
        SYSTEM LOSSES SW =           0.0000          SYSTEM LOSSES SW =           0.0000

               TOTAL OUT =           0.0000                 TOTAL OUT =           0.0000

                IN - OUT =           0.0000                  IN - OUT =           0.0000

     PERCENT DISCREPANCY =           0.00         PERCENT DISCREPANCY =           0.00



1
  VOLUMETRIC BUDGET FOR ENTIRE MODEL AT END OF TIME STEP   30, STRESS PERIOD   2
  ------------------------------------------------------------------------------

     CUMULATIVE VOLUMES      L**3       RATES FOR THIS TIME STEP      L**3/T
     ------------------                 ------------------------

           IN:                                      IN:
           ---                                      ---
             STORAGE     =     1687680.6250               STORAGE     =           0.5792
       CONSTANT HEAD     =           0.0000         CONSTANT HEAD     =           0.0000
     HEAD DEP BOUNDS     =      775205.3125       HEAD DEP BOUNDS     =           0.2854
      STREAM LEAKAGE     =    31116962.0000        STREAM LEAKAGE     =          11.4714
        UZF RECHARGE     =       73223.9531          UZF RECHARGE     =           0.0000
               GW ET     =           0.0000                 GW ET     =           0.0000
     SURFACE LEAKAGE     =           0.0000       SURFACE LEAKAGE     =           0.0000
           AG WELLS      =           0.0000             AG WELLS      =           0.0000

                TOTAL IN =    33653072.0000                  TOTAL IN =          12.3360

          OUT:                                     OUT:
          ----                                     ----
             STORAGE     =     4220740.5000               STORAGE     =           1.2356
       CONSTANT HEAD     =           0.0000         CONSTANT HEAD     =           0.0000
     HEAD DEP BOUNDS     =      783850.8125       HEAD DEP BOUNDS     =           0.2894
      STREAM LEAKAGE     =    28649202.0000        STREAM LEAKAGE     =          10.8112
        UZF RECHARGE     =           0.0000          UZF RECHARGE     =           0.0000
               GW ET     =           0.0000                 GW ET     =           0.0000
     SURFACE LEAKAGE     =           0.0000       SURFACE LEAKAGE     =           0.0000
           AG WELLS      =           0.0000             AG WELLS      =           0.0000

               TOTAL OUT =    33653792.0000                 TOTAL OUT =          12.3362

                IN - OUT =        -720.0000                  IN - OUT =      -1.8311E-04

     PERCENT DISCREPANCY =          -0.00         PERCENT DISCREPANCY =          -0.00






         TIME SUMMARY AT END OF TIME STEP   30 IN STRESS PERIOD    2
                    SECONDS     MINUTES      HOURS       DAYS        YEARS
                    -----------------------------------------------------------
   TIME STEP LENGTH  87667.      1461.1      24.352      1.0147     2.77799E-03
 STRESS PERIOD TIME 2.63000E+06  43833.      730.56      30.440     8.33397E-02
         TOTAL TIME 2.71640E+06  45273.      754.56      31.440     8.60775E-02
1
1
                            STRESS PERIOD NO.    3, LENGTH =   2630000.    
                            -----------------------------------------------

                              NUMBER OF TIME STEPS =    30

                               MULTIPLIER FOR DELT =     1.000

                            INITIAL TIME STEP SIZE =   87666.66    

 REUSING NON-PARAMETER GHB CELLS FROM LAST STRESS PERIOD

      2 GHB CELLS

 REUSING STREAM SEGMENT DATA FROM LAST STRESS PERIOD



            AREAL INFILTRATION RATE
 READING ON UNIT   19 WITH FORMAT: (FREE)              

            1           2           3           4           5           6           7           8           9          10
 ........................................................................................................................
   1   1.0000E-10  2.0000E-10   0.000       0.000       0.000       0.000       0.000       0.000       0.000       0.000    
   2   2.0000E-10  1.0000E-10  2.0000E-10   0.000       0.000      8.0000E-10  8.0000E-10  5.0000E-10   0.000       0.000    
   3    0.000      5.0000E-10  1.0000E-10  1.0000E-10  8.0000E-10  8.0000E-10  5.0000E-10  5.0000E-10   0.000       0.000    
   4   8.0000E-10  5.0000E-10  1.0000E-10  1.0000E-10  1.0000E-10  1.0000E-10  1.0000E-10  1.0000E-10  2.0000E-10   0.000    
   5   8.0000E-10  5.0000E-10  1.0000E-10  1.0000E-10  1.0000E-10  1.0000E-10  1.0000E-10  1.0000E-10  1.0000E-10  1.0000E-10
   6   8.0000E-10  5.0000E-10  5.0000E-10  2.0000E-10  2.0000E-10  1.0000E-10  1.0000E-10  1.0000E-10  1.0000E-10  5.0000E-10
   7   8.0000E-10  5.0000E-10  5.0000E-10  2.0000E-10  2.0000E-10  1.0000E-10  1.0000E-10  2.0000E-10  2.0000E-10   0.000    
   8    0.000      5.0000E-10  5.0000E-10  2.0000E-10  2.0000E-10  1.0000E-10  1.0000E-10  2.0000E-10  5.0000E-10   0.000    
   9    0.000      5.0000E-10  5.0000E-10  2.0000E-10  2.0000E-10  1.0000E-10  1.0000E-10  2.0000E-10  5.0000E-10   0.000    
  10    0.000      5.0000E-10  5.0000E-10  2.0000E-10  2.0000E-10  1.0000E-10  1.0000E-10  2.0000E-10  5.0000E-10  8.0000E-10
  11    0.000      1.0000E-10  1.0000E-10  1.0000E-10  1.0000E-10  1.0000E-10  1.0000E-10  2.0000E-10  5.0000E-10   0.000    
  12   1.0000E-10  1.0000E-10  1.0000E-10  1.0000E-10  1.0000E-10  1.0000E-10  1.0000E-10  1.0000E-10  2.0000E-10   0.000    
  13   1.0000E-10  1.0000E-10  2.0000E-10  2.0000E-10  2.0000E-10  2.0000E-10  2.0000E-10  1.0000E-10  1.0000E-10   0.000    
  14    0.000      2.0000E-10  5.0000E-10  5.0000E-10  5.0000E-10  5.0000E-10  5.0000E-10  2.0000E-10  1.0000E-10   0.000    
  15    0.000       0.000      8.0000E-10  8.0000E-10  8.0000E-10  8.0000E-10   0.000       0.000       0.000       0.000    

                  ET RATE =  5.000000E-10

 USING ET EXTINCTION DEPTH FROM PREVIOUS STRESS PERIOD. CURRENT PERIOD IS:       3

 USING EXTINCTION WATER CONTENT FROM PREVIOUS STRESS PERIOD. CURRENT PERIOD IS:       3

 USING AIR ENTRY PRESSURE FROM PREVIOUS STRESS PERIOD. CURRENT PERIOD IS:       3

 USING ROOT PRESSURE HEAD FROM PREVIOUS STRESS PERIOD. CURRENT PERIOD IS:       3

 USING ROOT ACTIVITY FROM PREVIOUS STRESS PERIOD. CURRENT PERIOD IS:       3

 PROCESSING AG STRESS PERIOD DATA

 READING AG STRESS PERIOD DATA

 READING IRRIGATION WELL

 END PROCESSING AG STRESS PERIOD DATA OPTIONS
 
 SOLVING FOR HEAD 
                                                   Max.-Head-Change                         Max.-Flux-Residual
  Residual-Control   Outer-Iter.   Inner-Iter.     Column Row Layer    Maximum-Head-Change  Column Row Layer    Maximum-Flux-Residual          L2-NORM 
          0                 1           2             2    2     1       0.4445665168E-02       2   13    1         0.2434077885E+00      0.6122456567E+00
          0                 2           2             2    2     1      -0.4324427866E-03       4   13    1        -0.2398219309E-01      0.6028203064E-01
          0                 3           1             2    2     1       0.2944774286E-04       4   13    1         0.1653808416E-02      0.4133544402E-02

    ------------------------------------------------
       NWT REQUIRED            3 OUTER ITERATIONS 
       AND A TOTAL OF          5 INNER ITERATIONS.
    ------------------------------------------------

 NO OUTPUT CONTROL FOR STRESS PERIOD    3   TIME STEP    1
 
 SOLVING FOR HEAD 
                                                   Max.-Head-Change                         Max.-Flux-Residual
  Residual-Control   Outer-Iter.   Inner-Iter.     Column Row Layer    Maximum-Head-Change  Column Row Layer    Maximum-Flux-Residual          L2-NORM 
          0                 1           2             2   13     1       0.7704228482E-02       4   13    1         0.4384289893E+00      0.9459694615E+00
          0                 2           2             4   13     1      -0.7354772568E-03       4   13    1        -0.4338087861E-01      0.9263039001E-01
          0                 3           1             4   13     1       0.4933218303E-04       4   13    1         0.2991614172E-02      0.6300865252E-02

    ------------------------------------------------
       NWT REQUIRED            3 OUTER ITERATIONS 
       AND A TOTAL OF          5 INNER ITERATIONS.
    ------------------------------------------------

 NO OUTPUT CONTROL FOR STRESS PERIOD    3   TIME STEP    2
 
 SOLVING FOR HEAD 
                                                   Max.-Head-Change                         Max.-Flux-Residual
  Residual-Control   Outer-Iter.   Inner-Iter.     Column Row Layer    Maximum-Head-Change  Column Row Layer    Maximum-Flux-Residual          L2-NORM 
          0                 1           2             2   13     1       0.7121127234E-02       2   13    1         0.4014741535E+00      0.8938692328E+00
          0                 2           2             4   13     1      -0.6668062820E-03       4   13    1        -0.3930286909E-01      0.8761599149E-01
          0                 3           1             4   13     1       0.4473894970E-04       4   13    1         0.2711165901E-02      0.5968549507E-02

    ------------------------------------------------
       NWT REQUIRED            3 OUTER ITERATIONS 
       AND A TOTAL OF          5 INNER ITERATIONS.
    ------------------------------------------------

 NO OUTPUT CONTROL FOR STRESS PERIOD    3   TIME STEP    3
 
 SOLVING FOR HEAD 
                                                   Max.-Head-Change                         Max.-Flux-Residual
  Residual-Control   Outer-Iter.   Inner-Iter.     Column Row Layer    Maximum-Head-Change  Column Row Layer    Maximum-Flux-Residual          L2-NORM 
          0                 1           2             2   13     1       0.6582769729E-02       2   13    1         0.3710761315E+00      0.8472028472E+00
          0                 2           2             2   13     1      -0.6119549928E-03       4   13    1        -0.3563299834E-01      0.8313001593E-01
          0                 3           1             4   13     1       0.4058759603E-04       4   13    1         0.2457765077E-02      0.5671479927E-02

    ------------------------------------------------
       NWT REQUIRED            3 OUTER ITERATIONS 
       AND A TOTAL OF          5 INNER ITERATIONS.
    ------------------------------------------------

 NO OUTPUT CONTROL FOR STRESS PERIOD    3   TIME STEP    4
 
 SOLVING FOR HEAD 
                                                   Max.-Head-Change                         Max.-Flux-Residual
  Residual-Control   Outer-Iter.   Inner-Iter.     Column Row Layer    Maximum-Head-Change  Column Row Layer    Maximum-Flux-Residual          L2-NORM 
          0                 1           2             2   13     1       0.6085651864E-02       2   13    1         0.3430083489E+00      0.8054120520E+00
          0                 2           2             2   13     1      -0.5659524633E-03       2   13    1        -0.3278948288E-01      0.7911499148E-01
          0                 3           1             4   13     1       0.3682391790E-04       4   13    1         0.2228115018E-02      0.5405163780E-02

    ------------------------------------------------
       NWT REQUIRED            3 OUTER ITERATIONS 
       AND A TOTAL OF          5 INNER ITERATIONS.
    ------------------------------------------------

 NO OUTPUT CONTROL FOR STRESS PERIOD    3   TIME STEP    5
 
 SOLVING FOR HEAD 
                                                   Max.-Head-Change                         Max.-Flux-Residual
  Residual-Control   Outer-Iter.   Inner-Iter.     Column Row Layer    Maximum-Head-Change  Column Row Layer    Maximum-Flux-Residual          L2-NORM 
          0                 1           2             2   13     1       0.5626677921E-02       2   13    1         0.3170959907E+00      0.7680204251E+00
          0                 2           2             2   13     1      -0.5234555535E-03       2   13    1        -0.3032316165E-01      0.7552067469E-01
          0                 3           1             2    2     1       0.3527219965E-04       4   13    1         0.2025021868E-02      0.5168676099E-02

    ------------------------------------------------
       NWT REQUIRED            3 OUTER ITERATIONS 
       AND A TOTAL OF          5 INNER ITERATIONS.
    ------------------------------------------------

 NO OUTPUT CONTROL FOR STRESS PERIOD    3   TIME STEP    6
 
 SOLVING FOR HEAD 
                                                   Max.-Head-Change                         Max.-Flux-Residual
  Residual-Control   Outer-Iter.   Inner-Iter.     Column Row Layer    Maximum-Head-Change  Column Row Layer    Maximum-Flux-Residual          L2-NORM 
          0                 1           2             2    2     1       0.5289563717E-02       2   13    1         0.2931748824E+00      0.7345793756E+00
          0                 2           2             2    2     1      -0.5145314201E-03       2   13    1        -0.2804363929E-01      0.7231634392E-01
          0                 3           1             2    2     1       0.3503767112E-04       2    2    1         0.1933947680E-02      0.4957786103E-02

    ------------------------------------------------
       NWT REQUIRED            3 OUTER ITERATIONS 
       AND A TOTAL OF          5 INNER ITERATIONS.
    ------------------------------------------------

 NO OUTPUT CONTROL FOR STRESS PERIOD    3   TIME STEP    7
 
 SOLVING FOR HEAD 
                                                   Max.-Head-Change                         Max.-Flux-Residual
  Residual-Control   Outer-Iter.   Inner-Iter.     Column Row Layer    Maximum-Head-Change  Column Row Layer    Maximum-Flux-Residual          L2-NORM 
          0                 1           2             2    2     1       0.5254572817E-02       2    2    1         0.2744371631E+00      0.7046590867E+00
          0                 2           2             2    2     1      -0.5111277395E-03       2    2    1        -0.2744378862E-01      0.6944667644E-01
          0                 3           1             2    2     1       0.3480589343E-04       2    2    1         0.1921065339E-02      0.4767238732E-02

    ------------------------------------------------
       NWT REQUIRED            3 OUTER ITERATIONS 
       AND A TOTAL OF          5 INNER ITERATIONS.
    ------------------------------------------------

 NO OUTPUT CONTROL FOR STRESS PERIOD    3   TIME STEP    8
 
 SOLVING FOR HEAD 
                                                   Max.-Head-Change                         Max.-Flux-Residual
  Residual-Control   Outer-Iter.   Inner-Iter.     Column Row Layer    Maximum-Head-Change  Column Row Layer    Maximum-Flux-Residual          L2-NORM 
          0                 1           2             2    2     1       0.5220076866E-02       2    2    1         0.2726229246E+00      0.6779020571E+00
          0                 2           2             2    2     1      -0.5077722038E-03       2    2    1        -0.2726236342E-01      0.6688010131E-01
          0                 3           1             2    2     1       0.3457739438E-04       2    2    1         0.1908365592E-02      0.4597003011E-02

    ------------------------------------------------
       NWT REQUIRED            3 OUTER ITERATIONS 
       AND A TOTAL OF          5 INNER ITERATIONS.
    ------------------------------------------------

 NO OUTPUT CONTROL FOR STRESS PERIOD    3   TIME STEP    9
 
 SOLVING FOR HEAD 
                                                   Max.-Head-Change                         Max.-Flux-Residual
  Residual-Control   Outer-Iter.   Inner-Iter.     Column Row Layer    Maximum-Head-Change  Column Row Layer    Maximum-Flux-Residual          L2-NORM 
          0                 1           2             2    2     1       0.5186067833E-02       2    2    1         0.2708343486E+00      0.6539758233E+00
          0                 2           2             2    2     1      -0.5044640328E-03       2    2    1        -0.2708350454E-01      0.6459025465E-01
          0                 3           1             2    2     1       0.3435212000E-04       2    2    1         0.1895845473E-02      0.4446636434E-02

    ------------------------------------------------
       NWT REQUIRED            3 OUTER ITERATIONS 
       AND A TOTAL OF          5 INNER ITERATIONS.
    ------------------------------------------------

 NO OUTPUT CONTROL FOR STRESS PERIOD    3   TIME STEP   10
 
 SOLVING FOR HEAD 
                                                   Max.-Head-Change                         Max.-Flux-Residual
  Residual-Control   Outer-Iter.   Inner-Iter.     Column Row Layer    Maximum-Head-Change  Column Row Layer    Maximum-Flux-Residual          L2-NORM 
          0                 1           2             2    2     1       0.5152538631E-02       2    2    1         0.2690710188E+00      0.6325565660E+00
          0                 2           2             2    2     1      -0.5012025364E-03       2    2    1        -0.2690717027E-01      0.6253819138E-01
          0                 3           1             2    2     1       0.3413002462E-04       2    2    1         0.1883502089E-02      0.4311334424E-02

    ------------------------------------------------
       NWT REQUIRED            3 OUTER ITERATIONS 
       AND A TOTAL OF          5 INNER ITERATIONS.
    ------------------------------------------------

 NO OUTPUT CONTROL FOR STRESS PERIOD    3   TIME STEP   11
 
 SOLVING FOR HEAD 
                                                   Max.-Head-Change                         Max.-Flux-Residual
  Residual-Control   Outer-Iter.   Inner-Iter.     Column Row Layer    Maximum-Head-Change  Column Row Layer    Maximum-Flux-Residual          L2-NORM 
          0                 1           2             2    2     1       0.5119394344E-02       2    2    1         0.2673280123E+00      0.6133688537E+00
          0                 2           2             2    2     1      -0.4979784828E-03       2    2    1        -0.2673286842E-01      0.6070978094E-01
          0                 3           1             2    2     1       0.3391047868E-04       2    2    1         0.1871300965E-02      0.4190229289E-02

    ------------------------------------------------
       NWT REQUIRED            3 OUTER ITERATIONS 
       AND A TOTAL OF          5 INNER ITERATIONS.
    ------------------------------------------------

 NO OUTPUT CONTROL FOR STRESS PERIOD    3   TIME STEP   12
 
 SOLVING FOR HEAD 
                                                   Max.-Head-Change                         Max.-Flux-Residual
  Residual-Control   Outer-Iter.   Inner-Iter.     Column Row Layer    Maximum-Head-Change  Column Row Layer    Maximum-Flux-Residual          L2-NORM 
          0                 1           2             2    2     1       0.5086715246E-02       2    2    1         0.2656095184E+00      0.5961581105E+00
          0                 2           2             2    2     1      -0.4947996786E-03       2    2    1        -0.2656101780E-01      0.5905064292E-01
          0                 3           1             2    2     1       0.3369401400E-04       2    2    1         0.1859271408E-02      0.4082409705E-02

    ------------------------------------------------
       NWT REQUIRED            3 OUTER ITERATIONS 
       AND A TOTAL OF          5 INNER ITERATIONS.
    ------------------------------------------------

 NO OUTPUT CONTROL FOR STRESS PERIOD    3   TIME STEP   13
 
 SOLVING FOR HEAD 
                                                   Max.-Head-Change                         Max.-Flux-Residual
  Residual-Control   Outer-Iter.   Inner-Iter.     Column Row Layer    Maximum-Head-Change  Column Row Layer    Maximum-Flux-Residual          L2-NORM 
          0                 1           2             2    2     1       0.5054493826E-02       2    2    1         0.2639151442E+00      0.5807037900E+00
          0                 2           2             2    2     1      -0.4916653956E-03       2    2    1        -0.2639157920E-01      0.5757019161E-01
          0                 3           1             2    2     1       0.3348058109E-04       2    2    1         0.1847410733E-02      0.3985979683E-02

    ------------------------------------------------
       NWT REQUIRED            3 OUTER ITERATIONS 
       AND A TOTAL OF          5 INNER ITERATIONS.
    ------------------------------------------------

 NO OUTPUT CONTROL FOR STRESS PERIOD    3   TIME STEP   14
 
 SOLVING FOR HEAD 
                                                   Max.-Head-Change                         Max.-Flux-Residual
  Residual-Control   Outer-Iter.   Inner-Iter.     Column Row Layer    Maximum-Head-Change  Column Row Layer    Maximum-Flux-Residual          L2-NORM 
          0                 1           2             2    2     1       0.5022723105E-02       2    2    1         0.2622445000E+00      0.5668087471E+00
          0                 2           2             2    2     1      -0.4885749531E-03       2    2    1        -0.2622451362E-01      0.5627803117E-01
          0                 3           1             2    2     1       0.3327013382E-04       2    2    1         0.1835716143E-02      0.3898527241E-02

    ------------------------------------------------
       NWT REQUIRED            3 OUTER ITERATIONS 
       AND A TOTAL OF          5 INNER ITERATIONS.
    ------------------------------------------------

 NO OUTPUT CONTROL FOR STRESS PERIOD    3   TIME STEP   15
 
 SOLVING FOR HEAD 
                                                   Max.-Head-Change                         Max.-Flux-Residual
  Residual-Control   Outer-Iter.   Inner-Iter.     Column Row Layer    Maximum-Head-Change  Column Row Layer    Maximum-Flux-Residual          L2-NORM 
          0                 1           2             2    2     1       0.4991308671E-02       2    2    1         0.2605926681E+00      0.5542621598E+00
          0                 2           2             2    2     1      -0.4855191685E-03       2    2    1        -0.2605932931E-01      0.5503402573E-01
          0                 3           1             2    2     1       0.3306204595E-04       2    2    1         0.1824153239E-02      0.3816222713E-02

    ------------------------------------------------
       NWT REQUIRED            3 OUTER ITERATIONS 
       AND A TOTAL OF          5 INNER ITERATIONS.
    ------------------------------------------------

 NO OUTPUT CONTROL FOR STRESS PERIOD    3   TIME STEP   16
 
 SOLVING FOR HEAD 
                                                   Max.-Head-Change                         Max.-Flux-Residual
  Residual-Control   Outer-Iter.   Inner-Iter.     Column Row Layer    Maximum-Head-Change  Column Row Layer    Maximum-Flux-Residual          L2-NORM 
          0                 1           2             2    2     1       0.4960331271E-02       2    2    1         0.2589638650E+00      0.5429237287E+00
          0                 2           2             2    2     1      -0.4825058959E-03       2    2    1        -0.2589644792E-01      0.5394667978E-01
          0                 3           1             2    2     1       0.3285685377E-04       2    2    1         0.1812751558E-02      0.3744539295E-02

    ------------------------------------------------
       NWT REQUIRED            3 OUTER ITERATIONS 
       AND A TOTAL OF          5 INNER ITERATIONS.
    ------------------------------------------------

 NO OUTPUT CONTROL FOR STRESS PERIOD    3   TIME STEP   17
 
 SOLVING FOR HEAD 
                                                   Max.-Head-Change                         Max.-Flux-Residual
  Residual-Control   Outer-Iter.   Inner-Iter.     Column Row Layer    Maximum-Head-Change  Column Row Layer    Maximum-Flux-Residual          L2-NORM 
          0                 1           2             2    2     1       0.4929772141E-02       2    2    1         0.2573570875E+00      0.5326596317E+00
          0                 2           2             2    2     1      -0.4795333093E-03       2    2    1        -0.2573576909E-01      0.5295846477E-01
          0                 3           1             2    2     1       0.3265443162E-04       2    2    1         0.1801504035E-02      0.3678816758E-02

    ------------------------------------------------
       NWT REQUIRED            3 OUTER ITERATIONS 
       AND A TOTAL OF          5 INNER ITERATIONS.
    ------------------------------------------------

 NO OUTPUT CONTROL FOR STRESS PERIOD    3   TIME STEP   18
 
 SOLVING FOR HEAD 
                                                   Max.-Head-Change                         Max.-Flux-Residual
  Residual-Control   Outer-Iter.   Inner-Iter.     Column Row Layer    Maximum-Head-Change  Column Row Layer    Maximum-Flux-Residual          L2-NORM 
          0                 1           2             2    2     1       0.4899649117E-02       2    2    1         0.2557732654E+00      0.5233498770E+00
          0                 2           2             2    2     1      -0.4766031447E-03       2    2    1        -0.2557738583E-01      0.5206240272E-01
          0                 3           1             2    2     1       0.3245489854E-04       2    2    1         0.1790417213E-02      0.3619080227E-02

    ------------------------------------------------
       NWT REQUIRED            3 OUTER ITERATIONS 
       AND A TOTAL OF          5 INNER ITERATIONS.
    ------------------------------------------------

 NO OUTPUT CONTROL FOR STRESS PERIOD    3   TIME STEP   19
 
 SOLVING FOR HEAD 
                                                   Max.-Head-Change                         Max.-Flux-Residual
  Residual-Control   Outer-Iter.   Inner-Iter.     Column Row Layer    Maximum-Head-Change  Column Row Layer    Maximum-Flux-Residual          L2-NORM 
          0                 1           2             2    2     1       0.4869943561E-02       2    2    1         0.2542114206E+00      0.5148868058E+00
          0                 2           2             2    2     1      -0.4737135889E-03       2    2    1        -0.2542120034E-01      0.5124794178E-01
          0                 3           1             2    2     1       0.3225813098E-04       2    2    1         0.1779484243E-02      0.3565258007E-02

    ------------------------------------------------
       NWT REQUIRED            3 OUTER ITERATIONS 
       AND A TOTAL OF          5 INNER ITERATIONS.
    ------------------------------------------------

 NO OUTPUT CONTROL FOR STRESS PERIOD    3   TIME STEP   20
 
 SOLVING FOR HEAD 
                                                   Max.-Head-Change                         Max.-Flux-Residual
  Residual-Control   Outer-Iter.   Inner-Iter.     Column Row Layer    Maximum-Head-Change  Column Row Layer    Maximum-Flux-Residual          L2-NORM 
          0                 1           2             2    2     1       0.4840560851E-02       2    2    1         0.2526666643E+00      0.5071622080E+00
          0                 2           2             2    2     1      -0.4708554374E-03       2    2    1        -0.2526672370E-01      0.5050249960E-01
          0                 3           1             2    2     1       0.3206350177E-04       2    2    1         0.1768670896E-02      0.3515500124E-02

    ------------------------------------------------
       NWT REQUIRED            3 OUTER ITERATIONS 
       AND A TOTAL OF          5 INNER ITERATIONS.
    ------------------------------------------------

 NO OUTPUT CONTROL FOR STRESS PERIOD    3   TIME STEP   21
 
 SOLVING FOR HEAD 
                                                   Max.-Head-Change                         Max.-Flux-Residual
  Residual-Control   Outer-Iter.   Inner-Iter.     Column Row Layer    Maximum-Head-Change  Column Row Layer    Maximum-Flux-Residual          L2-NORM 
          0                 1           2             2    2     1       0.4811582746E-02       2    2    1         0.2511432039E+00      0.5000937098E+00
          0                 2           2             2    2     1      -0.4680366431E-03       2    2    1        -0.2511437668E-01      0.4982278199E-01
          0                 3           1             2    2     1       0.3187155194E-04       2    2    1         0.1758006591E-02      0.3472748536E-02

    ------------------------------------------------
       NWT REQUIRED            3 OUTER ITERATIONS 
       AND A TOTAL OF          5 INNER ITERATIONS.
    ------------------------------------------------

 NO OUTPUT CONTROL FOR STRESS PERIOD    3   TIME STEP   22
 
 SOLVING FOR HEAD 
                                                   Max.-Head-Change                         Max.-Flux-Residual
  Residual-Control   Outer-Iter.   Inner-Iter.     Column Row Layer    Maximum-Head-Change  Column Row Layer    Maximum-Flux-Residual          L2-NORM 
          0                 1           2             2    2     1       0.4783003515E-02       2    2    1         0.2496407217E+00      0.4936160908E+00
          0                 2           2             2    2     1      -0.4652566484E-03       2    2    1        -0.2496412750E-01      0.4919394424E-01
          0                 3           1             2    2     1       0.3168224456E-04       2    2    1         0.1747489150E-02      0.3428273419E-02

    ------------------------------------------------
       NWT REQUIRED            3 OUTER ITERATIONS 
       AND A TOTAL OF          5 INNER ITERATIONS.
    ------------------------------------------------

 NO OUTPUT CONTROL FOR STRESS PERIOD    3   TIME STEP   23
 
 SOLVING FOR HEAD 
                                                   Max.-Head-Change                         Max.-Flux-Residual
  Residual-Control   Outer-Iter.   Inner-Iter.     Column Row Layer    Maximum-Head-Change  Column Row Layer    Maximum-Flux-Residual          L2-NORM 
          0                 1           2             2    2     1       0.4754729257E-02       2    2    1         0.2481543635E+00      0.4876498957E+00
          0                 2           2             2    2     1      -0.4625063205E-03       2    2    1        -0.2481549076E-01      0.4861590763E-01
          0                 3           1             2    2     1       0.3149495767E-04       2    2    1         0.1737084590E-02      0.3389490762E-02

    ------------------------------------------------
       NWT REQUIRED            3 OUTER ITERATIONS 
       AND A TOTAL OF          5 INNER ITERATIONS.
    ------------------------------------------------

 NO OUTPUT CONTROL FOR STRESS PERIOD    3   TIME STEP   24
 
 SOLVING FOR HEAD 
                                                   Max.-Head-Change                         Max.-Flux-Residual
  Residual-Control   Outer-Iter.   Inner-Iter.     Column Row Layer    Maximum-Head-Change  Column Row Layer    Maximum-Flux-Residual          L2-NORM 
          0                 1           2             2    2     1       0.4726929154E-02       2    2    1         0.2466929324E+00      0.4821480205E+00
          0                 2           2             2    2     1      -0.4598021146E-03       2    2    1        -0.2466934672E-01      0.4808264004E-01
          0                 3           1             2    2     1       0.3131081142E-04       2    2    1         0.1726854515E-02      0.3353918015E-02

    ------------------------------------------------
       NWT REQUIRED            3 OUTER ITERATIONS 
       AND A TOTAL OF          5 INNER ITERATIONS.
    ------------------------------------------------

 NO OUTPUT CONTROL FOR STRESS PERIOD    3   TIME STEP   25
 
 SOLVING FOR HEAD 
                                                   Max.-Head-Change                         Max.-Flux-Residual
  Residual-Control   Outer-Iter.   Inner-Iter.     Column Row Layer    Maximum-Head-Change  Column Row Layer    Maximum-Flux-Residual          L2-NORM 
          0                 1           2             2    2     1       0.4699421599E-02       2    2    1         0.2452469708E+00      0.4770441481E+00
          0                 2           2             2    2     1      -0.4571263660E-03       2    2    1        -0.2452474967E-01      0.4758683128E-01
          0                 3           1             2    2     1       0.3112860330E-04       2    2    1         0.1716732723E-02      0.3320399761E-02

    ------------------------------------------------
       NWT REQUIRED            3 OUTER ITERATIONS 
       AND A TOTAL OF          5 INNER ITERATIONS.
    ------------------------------------------------

 NO OUTPUT CONTROL FOR STRESS PERIOD    3   TIME STEP   26
 
 SOLVING FOR HEAD 
                                                   Max.-Head-Change                         Max.-Flux-Residual
  Residual-Control   Outer-Iter.   Inner-Iter.     Column Row Layer    Maximum-Head-Change  Column Row Layer    Maximum-Flux-Residual          L2-NORM 
          0                 1           2             2    2     1       0.4672289189E-02       2    2    1         0.2438207350E+00      0.4723096784E+00
          0                 2           2             2    2     1      -0.4544871096E-03       2    2    1        -0.2438212524E-01      0.4712609710E-01
          0                 3           1             2    2     1       0.3094887977E-04       2    2    1         0.1706749022E-02      0.3289323165E-02

    ------------------------------------------------
       NWT REQUIRED            3 OUTER ITERATIONS 
       AND A TOTAL OF          5 INNER ITERATIONS.
    ------------------------------------------------

 NO OUTPUT CONTROL FOR STRESS PERIOD    3   TIME STEP   27
 
 SOLVING FOR HEAD 
                                                   Max.-Head-Change                         Max.-Flux-Residual
  Residual-Control   Outer-Iter.   Inner-Iter.     Column Row Layer    Maximum-Head-Change  Column Row Layer    Maximum-Flux-Residual          L2-NORM 
          0                 1           2             2    2     1       0.4645525634E-02       2    2    1         0.2424139500E+00      0.4678977169E+00
          0                 2           2             2    2     1      -0.4518837322E-03       2    2    1        -0.2424144588E-01      0.4669644227E-01
          0                 3           1             2    2     1       0.3077159918E-04       2    2    1         0.1696901457E-02      0.3260302389E-02

    ------------------------------------------------
       NWT REQUIRED            3 OUTER ITERATIONS 
       AND A TOTAL OF          5 INNER ITERATIONS.
    ------------------------------------------------

 NO OUTPUT CONTROL FOR STRESS PERIOD    3   TIME STEP   28
 
 SOLVING FOR HEAD 
                                                   Max.-Head-Change                         Max.-Flux-Residual
  Residual-Control   Outer-Iter.   Inner-Iter.     Column Row Layer    Maximum-Head-Change  Column Row Layer    Maximum-Flux-Residual          L2-NORM 
          0                 1           2             2    2     1       0.4619038651E-02       2    2    1         0.2410217318E+00      0.4637718241E+00
          0                 2           2             2    2     1      -0.4493072587E-03       2    2    1        -0.2410222323E-01      0.4629376131E-01
          0                 3           1             2    2     1       0.3059615139E-04       2    2    1         0.1687155890E-02      0.3232867274E-02

    ------------------------------------------------
       NWT REQUIRED            3 OUTER ITERATIONS 
       AND A TOTAL OF          5 INNER ITERATIONS.
    ------------------------------------------------

 NO OUTPUT CONTROL FOR STRESS PERIOD    3   TIME STEP   29
 
 SOLVING FOR HEAD 
                                                   Max.-Head-Change                         Max.-Flux-Residual
  Residual-Control   Outer-Iter.   Inner-Iter.     Column Row Layer    Maximum-Head-Change  Column Row Layer    Maximum-Flux-Residual          L2-NORM 
          0                 1           2             4   13     1       0.1233764695E-01       4   13    1         0.7106705653E+00      0.1463898131E+01
          0                 2           2             4   13     1      -0.1186832481E-02       4   13    1        -0.7028982513E-01      0.1429497875E+00
          0                 3           1             4   13     1       0.7957547730E-04       4   13    1         0.4845459470E-02      0.9686432290E-02

    ------------------------------------------------
       NWT REQUIRED            3 OUTER ITERATIONS 
       AND A TOTAL OF          5 INNER ITERATIONS.
    ------------------------------------------------

 NO OUTPUT CONTROL FOR STRESS PERIOD    3   TIME STEP   30



 STREAM LISTING     PERIOD      3   STEP       30

 LAYER ROW COL. STREAM  RCH.  FLOW INTO     FLOW TO   FLOW OUT OF   OVRLND.     DIRECT     STREAM       STREAM     STREAM     STREAM   STREAMBED  STREAMBED
                SEG.NO.  NO.  STRM. RCH.    AQUIFER    STRM. RCH.    RUNOFF     PRECIP       ET          HEAD       DEPTH      WIDTH   CONDCTNC.   GRADIENT

   1    1    1     1     1    7.2502E+01  4.1419E-01   7.2087E+01  0.000E+00  0.000E+00  0.000E+00  1.09472E+03  1.670E+00  1.971E+01  8.868E-02  1.557E+00
   1    2    2     1     2    7.2087E+01  6.4160E-01   7.1446E+01  0.000E+00  0.000E+00  0.000E+00  1.08972E+03  1.665E+00  1.965E+01  1.375E-01  1.555E+00
   1    3    3     1     3    7.1446E+01  5.4733E-01   7.0899E+01  0.000E+00  0.000E+00  0.000E+00  1.08408E+03  1.658E+00  1.958E+01  1.175E-01  1.553E+00
   1    3    4     1     4    7.0899E+01  5.0414E-01   7.0394E+01  0.000E+00  0.000E+00  0.000E+00  1.07906E+03  1.652E+00  1.953E+01  1.084E-01  1.551E+00
   1    4    5     2     1    6.8394E+01  4.0598E-01   6.7988E+01  0.000E+00  0.000E+00  0.000E+00  1.07414E+03  2.205E+00  1.200E+01  7.800E-02  1.735E+00
   1    5    6     2     2    6.7988E+01  3.1187E-01   6.7677E+01  0.000E+00  0.000E+00  0.000E+00  1.06871E+03  2.198E+00  1.200E+01  6.000E-02  1.733E+00
   1    6    6     2     3    6.7677E+01  3.1151E-01   6.7365E+01  0.000E+00  0.000E+00  0.000E+00  1.06398E+03  2.192E+00  1.200E+01  6.000E-02  1.731E+00
   1    7    6     2     4    6.7365E+01  3.1115E-01   6.7054E+01  0.000E+00  0.000E+00  0.000E+00  1.05926E+03  2.186E+00  1.200E+01  6.000E-02  1.729E+00
   1    8    6     2     5    6.7054E+01  3.1078E-01   6.6743E+01  0.000E+00  0.000E+00  0.000E+00  1.05454E+03  2.180E+00  1.200E+01  6.000E-02  1.727E+00
   1    3    5     3     1    2.0000E+00  2.8252E-01   1.7175E+00  0.000E+00  0.000E+00  0.000E+00  1.07555E+03  1.909E+00  9.636E+00  7.227E-02  1.955E+00
   1    3    6     3     2    1.7175E+00  2.4905E-01   1.4684E+00  0.000E+00  0.000E+00  0.000E+00  1.07264E+03  1.727E+00  8.909E+00  6.682E-02  1.864E+00
   1    3    7     3     3    1.4684E+00  1.9718E-01   1.2712E+00  0.000E+00  0.000E+00  0.000E+00  1.06987E+03  1.555E+00  8.218E+00  5.547E-02  1.777E+00
   1    4    8     3     4    1.2712E+00  2.2567E-01   1.0456E+00  0.000E+00  0.000E+00  0.000E+00  1.06682E+03  1.364E+00  7.455E+00  6.709E-02  1.682E+00
   1    5    8     3     5    1.0456E+00  1.5790E-01   8.8768E-01  0.000E+00  0.000E+00  0.000E+00  1.06362E+03  1.164E+00  6.655E+00  4.991E-02  1.582E+00
   1    6    8     3     6    8.8768E-01  5.5980E-02   8.3170E-01  0.000E+00  0.000E+00  0.000E+00  1.06158E+03  1.036E+00  6.145E+00  1.844E-02  1.518E+00
   1    5   10     4     1    1.0000E+01  9.0919E-02   9.9091E+00  0.000E+00  0.000E+00  0.000E+00  1.07836E+03  6.368E-01  1.000E+01  2.500E-02  1.212E+00
   1    5    9     4     2    9.9091E+00  1.8158E-01   9.7275E+00  0.000E+00  0.000E+00  0.000E+00  1.07154E+03  6.315E-01  1.000E+01  5.000E-02  1.211E+00
   1    6    8     4     3    9.7275E+00  1.2689E-01   9.6006E+00  0.000E+00  0.000E+00  0.000E+00  1.06381E+03  6.256E-01  1.000E+01  3.500E-02  1.209E+00
   1    6    8     5     1    1.0432E+01  2.2686E-01   1.0205E+01  0.000E+00  0.000E+00  0.000E+00  1.05868E+03  6.790E-01  1.542E+01  6.166E-02  1.226E+00
   1    7    7     5     2    1.0205E+01  2.7894E-01   9.9265E+00  0.000E+00  0.000E+00  0.000E+00  1.05417E+03  6.732E-01  1.519E+01  7.594E-02  1.224E+00
   1    8    7     5     3    9.9265E+00  1.9221E-01   9.7343E+00  0.000E+00  0.000E+00  0.000E+00  1.04992E+03  6.676E-01  1.497E+01  5.241E-02  1.223E+00
   1    8    6     5     4    9.7343E+00  1.3577E-01   9.5985E+00  0.000E+00  0.000E+00  0.000E+00  1.04691E+03  6.637E-01  1.482E+01  3.706E-02  1.221E+00
   1    9    6     6     1    7.6342E+01  3.2296E-01   7.6019E+01  0.000E+00  0.000E+00  0.000E+00  1.04511E+03  2.383E+00  1.200E+01  6.000E-02  1.794E+00
   1   10    7     6     2    7.6019E+01  3.2260E-01   7.5696E+01  0.000E+00  0.000E+00  0.000E+00  1.04056E+03  2.377E+00  1.200E+01  6.000E-02  1.792E+00
   1   11    7     6     3    7.5696E+01  3.2224E-01   7.5374E+01  0.000E+00  0.000E+00  0.000E+00  1.03601E+03  2.371E+00  1.200E+01  6.000E-02  1.790E+00
   1   12    7     6     4    7.5374E+01  3.2187E-01   7.5052E+01  0.000E+00  0.000E+00  0.000E+00  1.03146E+03  2.365E+00  1.200E+01  6.000E-02  1.788E+00
   1   13    7     6     5    7.5052E+01  2.7035E-02   7.5025E+01  0.000E+00  0.000E+00  0.000E+00  1.02827E+03  2.361E+00  1.200E+01  2.400E-02  3.755E-01
   1   14    9     7     1    1.5000E+02  1.3312E+00   1.4867E+02  0.000E+00  0.000E+00  0.000E+00  1.03987E+03  2.288E+00  5.529E+01  5.593E-01  7.933E-01
   1   13    8     7     2    1.4867E+02  1.8193E+00   1.4685E+02  0.000E+00  0.000E+00  0.000E+00  1.03478E+03  2.279E+00  5.526E+01  6.148E-01  9.864E-01
   1   13    7     7     3    1.4685E+02  1.4219E+00   1.4543E+02  0.000E+00  0.000E+00  0.000E+00  1.02969E+03  2.271E+00  5.522E+01  5.585E-01  8.487E-01
   1   13    6     8     1    2.2045E+02  1.0869E+00   2.1937E+02  0.000E+00  0.000E+00  0.000E+00  1.02513E+03  3.251E+00  4.715E+01  4.804E-01  7.541E-01
   1   13    5     8     2    2.1937E+02  2.5867E-01   2.1911E+02  0.000E+00  0.000E+00  0.000E+00  1.01887E+03  3.248E+00  4.709E+01  4.799E-01  1.797E-01
   1   13    4     8     3    2.1911E+02 -1.9098E+00   2.2102E+02  0.000E+00  0.000E+00  0.000E+00  1.01263E+03  3.252E+00  4.716E+01  4.806E+00 -1.325E-01
   1   13    3     8     4    2.2102E+02 -3.1179E+00   2.2413E+02  0.000E+00  0.000E+00  0.000E+00  1.00639E+03  3.266E+00  4.736E+01  4.826E+00 -2.154E-01
   1   13    2     8     5    2.2413E+02 -1.9270E+00   2.2606E+02  0.000E+00  0.000E+00  0.000E+00  1.00015E+03  3.280E+00  4.756E+01  4.846E+00 -1.325E-01
   1   13    1     8     6    2.2606E+02 -1.5653E+00   2.2763E+02  0.000E+00  0.000E+00  0.000E+00  9.95164E+02  3.289E+00  4.770E+01  2.916E+00 -1.789E-01





UNSATURATED ZONE PACKAGE VOLUMETRIC BUDGET FOR  TIME STEP    30 STRESS PERIOD    3
  ------------------------------------------------------------------------------



     CUMULATIVE VOLUMES      L**3       RATES FOR THIS TIME STEP      L**3/T
     ------------------                 ------------------------

           IN:                                      IN:
           ---                                      ---
        INFILTRATION =     4531073.7455          INFILTRATION =           0.8475

          OUT:                                     OUT:
          ----                                     ----
              UZF ET =     3944959.1553                UZF ET =           0.7500
        UZF RECHARGE =       73224.0000          UZF RECHARGE =       0.0000E+00

            IN - OUT =      512890.5902              IN - OUT =       9.7500E-02

          STORAGE:                                 STORAGE:
          --------                                 --------
      STORAGE CHANGE =      512890.6306        STORAGE CHANGE =       9.7500E-02

 PERCENT DISCREPANCY IS DIFFERENCE BETWEEN IN-OUT MINUS CHANGE IN STORAGE
 DIVIDED BY THE AVERAGE OF IN AND OUT TIMES 100

 PERCENT DISCREPANCY =          -0.00     PERCENT DISCREPANCY =           0.00






1
  VOLUMETRIC BUDGET FOR AGRICULTURAL FIELDS AT  END OF TIME STEP   30, STRESS PERIOD   3
  ------------------------------------------------------------------------------

     CUMULATIVE VOLUMES      L**3       RATES FOR THIS TIME STEP      L**3/T
     ------------------                 ------------------------

           IN:                                      IN:
           ---                                      ---
               AG WELLS  =           0.0000                 AG WELLS  =           0.0000
      DIVERSION SEGMENTS =           0.0000        DIVERSION SEGMENTS =           0.0000
           GW IRRIGATION =           0.0000             GW IRRIGATION =           0.0000
           SW IRRIGATION =           0.0000             SW IRRIGATION =           0.0000
        SYSTEM LOSSES GW =           0.0000          SYSTEM LOSSES GW =           0.0000
        SYSTEM LOSSES SW =           0.0000          SYSTEM LOSSES SW =           0.0000

                TOTAL IN =           0.0000                  TOTAL IN =           0.0000

          OUT:                                     OUT:
          ----                                     ----
               AG WELLS  =           0.0000                 AG WELLS  =           0.0000
      DIVERSION SEGMENTS =           0.0000        DIVERSION SEGMENTS =           0.0000
           GW IRRIGATION =           0.0000             GW IRRIGATION =           0.0000
           SW IRRIGATION =           0.0000             SW IRRIGATION =           0.0000
        SYSTEM LOSSES GW =           0.0000          SYSTEM LOSSES GW =           0.0000
        SYSTEM LOSSES SW =           0.0000          SYSTEM LOSSES SW =           0.0000

               TOTAL OUT =           0.0000                 TOTAL OUT =           0.0000

                IN - OUT =           0.0000                  IN - OUT =           0.0000

     PERCENT DISCREPANCY =           0.00         PERCENT DISCREPANCY =           0.00



1
  VOLUMETRIC BUDGET FOR ENTIRE MODEL AT END OF TIME STEP   30, STRESS PERIOD   3
  ------------------------------------------------------------------------------

     CUMULATIVE VOLUMES      L**3       RATES FOR THIS TIME STEP      L**3/T
     ------------------                 ------------------------

           IN:                                      IN:
           ---                                      ---
             STORAGE     =     3047021.5000               STORAGE     =           0.4724
       CONSTANT HEAD     =           0.0000         CONSTANT HEAD     =           0.0000
     HEAD DEP BOUNDS     =     1525869.2500       HEAD DEP BOUNDS     =           0.2854
      STREAM LEAKAGE     =    63536332.0000        STREAM LEAKAGE     =          13.3947
        UZF RECHARGE     =       73223.9531          UZF RECHARGE     =           0.0000
               GW ET     =           0.0000                 GW ET     =           0.0000
     SURFACE LEAKAGE     =           0.0000       SURFACE LEAKAGE     =           0.0000
           AG WELLS      =           0.0000             AG WELLS      =           0.0000

                TOTAL IN =    68182448.0000                  TOTAL IN =          14.1525

          OUT:                                     OUT:
          ----                                     ----
             STORAGE     =    11250392.0000               STORAGE     =           5.3403
       CONSTANT HEAD     =           0.0000         CONSTANT HEAD     =           0.0000
     HEAD DEP BOUNDS     =     1549889.6250       HEAD DEP BOUNDS     =           0.2926
      STREAM LEAKAGE     =    55383876.0000        STREAM LEAKAGE     =           8.5200
        UZF RECHARGE     =           0.0000          UZF RECHARGE     =           0.0000
               GW ET     =         620.0454                 GW ET     =       9.2745E-04
     SURFACE LEAKAGE     =           0.0000       SURFACE LEAKAGE     =           0.0000
           AG WELLS      =           0.0000             AG WELLS      =           0.0000

               TOTAL OUT =    68184784.0000                 TOTAL OUT =          14.1539

                IN - OUT =       -2336.0000                  IN - OUT =      -1.3819E-03

     PERCENT DISCREPANCY =          -0.00         PERCENT DISCREPANCY =          -0.01






         TIME SUMMARY AT END OF TIME STEP   30 IN STRESS PERIOD    3
                    SECONDS     MINUTES      HOURS       DAYS        YEARS
                    -----------------------------------------------------------
   TIME STEP LENGTH  87667.      1461.1      24.352      1.0147     2.77799E-03
 STRESS PERIOD TIME 2.63000E+06  43833.      730.56      30.440     8.33397E-02
         TOTAL TIME 5.34640E+06  89107.      1485.1      61.880     0.16942    
1
1
                            STRESS PERIOD NO.    4, LENGTH =   2630000.    
                            -----------------------------------------------

                              NUMBER OF TIME STEPS =    30

                               MULTIPLIER FOR DELT =     1.000

                            INITIAL TIME STEP SIZE =   87666.66    

 REUSING NON-PARAMETER GHB CELLS FROM LAST STRESS PERIOD

      2 GHB CELLS

 REUSING STREAM SEGMENT DATA FROM LAST STRESS PERIOD



            AREAL INFILTRATION RATE
 READING ON UNIT   19 WITH FORMAT: (FREE)              

            1           2           3           4           5           6           7           8           9          10
 ........................................................................................................................
   1   1.0000E-10  2.0000E-10   0.000       0.000       0.000       0.000       0.000       0.000       0.000       0.000    
   2   2.0000E-10  1.0000E-10  2.0000E-10   0.000       0.000      8.0000E-10  8.0000E-10  5.0000E-10   0.000       0.000    
   3    0.000      5.0000E-10  1.0000E-10  1.0000E-10  8.0000E-10  8.0000E-10  5.0000E-10  5.0000E-10   0.000       0.000    
   4   8.0000E-10  5.0000E-10  1.0000E-10  1.0000E-10  1.0000E-10  1.0000E-10  1.0000E-10  1.0000E-10  2.0000E-10   0.000    
   5   8.0000E-10  5.0000E-10  1.0000E-10  1.0000E-10  1.0000E-10  1.0000E-10  1.0000E-10  1.0000E-10  1.0000E-10  1.0000E-10
   6   8.0000E-10  5.0000E-10  5.0000E-10  2.0000E-10  2.0000E-10  1.0000E-10  1.0000E-10  1.0000E-10  1.0000E-10  5.0000E-10
   7   8.0000E-10  5.0000E-10  5.0000E-10  2.0000E-10  2.0000E-10  1.0000E-10  1.0000E-10  2.0000E-10  2.0000E-10   0.000    
   8    0.000      5.0000E-10  5.0000E-10  2.0000E-10  2.0000E-10  1.0000E-10  1.0000E-10  2.0000E-10  5.0000E-10   0.000    
   9    0.000      5.0000E-10  5.0000E-10  2.0000E-10  2.0000E-10  1.0000E-10  1.0000E-10  2.0000E-10  5.0000E-10   0.000    
  10    0.000      5.0000E-10  5.0000E-10  2.0000E-10  2.0000E-10  1.0000E-10  1.0000E-10  2.0000E-10  5.0000E-10  8.0000E-10
  11    0.000      1.0000E-10  1.0000E-10  1.0000E-10  1.0000E-10  1.0000E-10  1.0000E-10  2.0000E-10  5.0000E-10   0.000    
  12   1.0000E-10  1.0000E-10  1.0000E-10  1.0000E-10  1.0000E-10  1.0000E-10  1.0000E-10  1.0000E-10  2.0000E-10   0.000    
  13   1.0000E-10  1.0000E-10  2.0000E-10  2.0000E-10  2.0000E-10  2.0000E-10  2.0000E-10  1.0000E-10  1.0000E-10   0.000    
  14    0.000      2.0000E-10  5.0000E-10  5.0000E-10  5.0000E-10  5.0000E-10  5.0000E-10  2.0000E-10  1.0000E-10   0.000    
  15    0.000       0.000      8.0000E-10  8.0000E-10  8.0000E-10  8.0000E-10   0.000       0.000       0.000       0.000    

                  ET RATE =  5.000000E-10

 USING ET EXTINCTION DEPTH FROM PREVIOUS STRESS PERIOD. CURRENT PERIOD IS:       4

 USING EXTINCTION WATER CONTENT FROM PREVIOUS STRESS PERIOD. CURRENT PERIOD IS:       4

 USING AIR ENTRY PRESSURE FROM PREVIOUS STRESS PERIOD. CURRENT PERIOD IS:       4

 USING ROOT PRESSURE HEAD FROM PREVIOUS STRESS PERIOD. CURRENT PERIOD IS:       4

 USING ROOT ACTIVITY FROM PREVIOUS STRESS PERIOD. CURRENT PERIOD IS:       4

 PROCESSING AG STRESS PERIOD DATA

 READING AG STRESS PERIOD DATA

 READING IRRIGATION WELL

 END PROCESSING AG STRESS PERIOD DATA OPTIONS
 
 SOLVING FOR HEAD 
                                                   Max.-Head-Change                         Max.-Flux-Residual
  Residual-Control   Outer-Iter.   Inner-Iter.     Column Row Layer    Maximum-Head-Change  Column Row Layer    Maximum-Flux-Residual          L2-NORM 
          0                 1           2             2   13     1       0.1291412078E-01       4   13    1         0.7419829281E+00      0.1544938060E+01
          0                 2           2             4   13     1      -0.1238783635E-02       4   13    1        -0.7337782499E-01      0.1509475752E+00
          0                 3           1             4   13     1       0.8310876464E-04       4   13    1         0.5058446806E-02      0.1035433779E-01

    ------------------------------------------------
       NWT REQUIRED            3 OUTER ITERATIONS 
       AND A TOTAL OF          5 INNER ITERATIONS.
    ------------------------------------------------

 NO OUTPUT CONTROL FOR STRESS PERIOD    4   TIME STEP    1
 
 SOLVING FOR HEAD 
                                                   Max.-Head-Change                         Max.-Flux-Residual
  Residual-Control   Outer-Iter.   Inner-Iter.     Column Row Layer    Maximum-Head-Change  Column Row Layer    Maximum-Flux-Residual          L2-NORM 
          0                 1           2             2   13     1       0.1188955969E-01       2   13    1         0.6731431908E+00      0.1450616462E+01
          0                 2           2             4   13     1      -0.1118338741E-02       4   13    1        -0.6619701266E-01      0.1417640058E+00
          0                 3           1             4   13     1       0.7494641554E-04       4   13    1         0.4561057022E-02      0.9614717009E-02

    ------------------------------------------------
       NWT REQUIRED            3 OUTER ITERATIONS 
       AND A TOTAL OF          5 INNER ITERATIONS.
    ------------------------------------------------

 NO OUTPUT CONTROL FOR STRESS PERIOD    4   TIME STEP    2
 
 SOLVING FOR HEAD 
                                                   Max.-Head-Change                         Max.-Flux-Residual
  Residual-Control   Outer-Iter.   Inner-Iter.     Column Row Layer    Maximum-Head-Change  Column Row Layer    Maximum-Flux-Residual          L2-NORM 
          0                 1           2             2   13     1       0.1094717874E-01       2   13    1         0.6197105550E+00      0.1366415956E+01
          0                 2           2             2   13     1      -0.1014816023E-02       4   13    1        -0.5976411908E-01      0.1336868793E+00
          0                 3           1             4   13     1       0.6771493970E-04       4   13    1         0.4117697884E-02      0.9083453569E-02

    ------------------------------------------------
       NWT REQUIRED            3 OUTER ITERATIONS 
       AND A TOTAL OF          5 INNER ITERATIONS.
    ------------------------------------------------

 NO OUTPUT CONTROL FOR STRESS PERIOD    4   TIME STEP    3
 
 SOLVING FOR HEAD 
                                                   Max.-Head-Change                         Max.-Flux-Residual
  Residual-Control   Outer-Iter.   Inner-Iter.     Column Row Layer    Maximum-Head-Change  Column Row Layer    Maximum-Flux-Residual          L2-NORM 
          0                 1           2             2   13     1       0.1008039878E-01       2   13    1         0.5705667495E+00      0.1291315612E+01
          0                 2           2             2   13     1      -0.9348989746E-03       2   13    1        -0.5439353912E-01      0.1264890339E+00
          0                 3           1             4   13     1       0.6121613531E-04       4   13    1         0.3719437842E-02      0.8608820741E-02

    ------------------------------------------------
       NWT REQUIRED            3 OUTER ITERATIONS 
       AND A TOTAL OF          5 INNER ITERATIONS.
    ------------------------------------------------

 NO OUTPUT CONTROL FOR STRESS PERIOD    4   TIME STEP    4
 
 SOLVING FOR HEAD 
                                                   Max.-Head-Change                         Max.-Flux-Residual
  Residual-Control   Outer-Iter.   Inner-Iter.     Column Row Layer    Maximum-Head-Change  Column Row Layer    Maximum-Flux-Residual          L2-NORM 
          0                 1           2             2   13     1       0.9283186994E-02       2   13    1         0.5253694967E+00      0.1224400863E+01
          0                 2           2             2   13     1      -0.8613135316E-03       2   13    1        -0.5010485687E-01      0.1200815214E+00
          0                 3           1             4   13     1       0.5540141963E-04       4   13    1         0.3363234146E-02      0.8187081237E-02

    ------------------------------------------------
       NWT REQUIRED            3 OUTER ITERATIONS 
       AND A TOTAL OF          5 INNER ITERATIONS.
    ------------------------------------------------

 NO OUTPUT CONTROL FOR STRESS PERIOD    4   TIME STEP    5
 
 SOLVING FOR HEAD 
                                                   Max.-Head-Change                         Max.-Flux-Residual
  Residual-Control   Outer-Iter.   Inner-Iter.     Column Row Layer    Maximum-Head-Change  Column Row Layer    Maximum-Flux-Residual          L2-NORM 
          0                 1           2             2   13     1       0.8549974915E-02       2   13    1         0.4838029440E+00      0.1164812224E+01
          0                 2           2             2   13     1      -0.7935824188E-03       2   13    1        -0.4615762446E-01      0.1143791499E+00
          0                 3           1             2    2     1       0.5140191434E-04       4   13    1         0.3042286572E-02      0.7811464721E-02

    ------------------------------------------------
       NWT REQUIRED            3 OUTER ITERATIONS 
       AND A TOTAL OF          5 INNER ITERATIONS.
    ------------------------------------------------

 NO OUTPUT CONTROL FOR STRESS PERIOD    4   TIME STEP    6
 
 SOLVING FOR HEAD 
                                                   Max.-Head-Change                         Max.-Flux-Residual
  Residual-Control   Outer-Iter.   Inner-Iter.     Column Row Layer    Maximum-Head-Change  Column Row Layer    Maximum-Flux-Residual          L2-NORM 
          0                 1           2             2   13     1       0.7875627088E-02       2   13    1         0.4455757370E+00      0.1111787265E+01
          0                 2           2             2    2     1      -0.7501961950E-03       2   13    1        -0.4252480749E-01      0.1093098227E+00
          0                 3           1             2    2     1       0.5108555791E-04       2    2    1         0.2818321109E-02      0.7479073570E-02

    ------------------------------------------------
       NWT REQUIRED            3 OUTER ITERATIONS 
       AND A TOTAL OF          5 INNER ITERATIONS.
    ------------------------------------------------

 NO OUTPUT CONTROL FOR STRESS PERIOD    4   TIME STEP    7
 
 SOLVING FOR HEAD 
                                                   Max.-Head-Change                         Max.-Flux-Residual
  Residual-Control   Outer-Iter.   Inner-Iter.     Column Row Layer    Maximum-Head-Change  Column Row Layer    Maximum-Flux-Residual          L2-NORM 
          0                 1           2             2    2     1       0.7665179640E-02       2   13    1         0.4104181933E+00      0.1064627355E+01
          0                 2           2             2    2     1      -0.7456151658E-03       2    2    1        -0.4001410346E-01      0.1048038506E+00
          0                 3           1             2    2     1       0.5077360716E-04       2    2    1         0.2800987080E-02      0.7181864194E-02

    ------------------------------------------------
       NWT REQUIRED            3 OUTER ITERATIONS 
       AND A TOTAL OF          5 INNER ITERATIONS.
    ------------------------------------------------

 NO OUTPUT CONTROL FOR STRESS PERIOD    4   TIME STEP    8
 
 SOLVING FOR HEAD 
                                                   Max.-Head-Change                         Max.-Flux-Residual
  Residual-Control   Outer-Iter.   Inner-Iter.     Column Row Layer    Maximum-Head-Change  Column Row Layer    Maximum-Flux-Residual          L2-NORM 
          0                 1           2             2    2     1       0.7618653017E-02       2    2    1         0.3976932327E+00      0.1022691401E+01
          0                 2           2             2    2     1      -0.7410893556E-03       2    2    1        -0.3976946691E-01      0.1007998258E+00
          0                 3           1             2    2     1       0.5046541667E-04       2    2    1         0.2783862523E-02      0.6919858343E-02

    ------------------------------------------------
       NWT REQUIRED            3 OUTER ITERATIONS 
       AND A TOTAL OF          5 INNER ITERATIONS.
    ------------------------------------------------

 NO OUTPUT CONTROL FOR STRESS PERIOD    4   TIME STEP    9
 
 SOLVING FOR HEAD 
                                                   Max.-Head-Change                         Max.-Flux-Residual
  Residual-Control   Outer-Iter.   Inner-Iter.     Column Row Layer    Maximum-Head-Change  Column Row Layer    Maximum-Flux-Residual          L2-NORM 
          0                 1           2             2    2     1       0.7572771882E-02       2    2    1         0.3952808855E+00      0.9853861600E+00
          0                 2           2             2    2     1      -0.7366263344E-03       2    2    1        -0.3952822971E-01      0.9723748214E-01
          0                 3           1             2    2     1       0.5016150120E-04       2    2    1         0.2766975919E-02      0.6686492975E-02

    ------------------------------------------------
       NWT REQUIRED            3 OUTER ITERATIONS 
       AND A TOTAL OF          5 INNER ITERATIONS.
    ------------------------------------------------

 NO OUTPUT CONTROL FOR STRESS PERIOD    4   TIME STEP   10
 
 SOLVING FOR HEAD 
                                                   Max.-Head-Change                         Max.-Flux-Residual
  Residual-Control   Outer-Iter.   Inner-Iter.     Column Row Layer    Maximum-Head-Change  Column Row Layer    Maximum-Flux-Residual          L2-NORM 
          0                 1           2             2    2     1       0.7527438292E-02       2    2    1         0.3928974452E+00      0.9522079556E+00
          0                 2           2             2    2     1      -0.7322165762E-03       2    2    1        -0.3928988327E-01      0.9407284951E-01
          0                 3           1             2    2     1       0.4986121394E-04       2    2    1         0.2750291704E-02      0.6478678436E-02

    ------------------------------------------------
       NWT REQUIRED            3 OUTER ITERATIONS 
       AND A TOTAL OF          5 INNER ITERATIONS.
    ------------------------------------------------

 NO OUTPUT CONTROL FOR STRESS PERIOD    4   TIME STEP   11
 
 SOLVING FOR HEAD 
                                                   Max.-Head-Change                         Max.-Flux-Residual
  Residual-Control   Outer-Iter.   Inner-Iter.     Column Row Layer    Maximum-Head-Change  Column Row Layer    Maximum-Flux-Residual          L2-NORM 
          0                 1           2             2    2     1       0.7482730438E-02       2    2    1         0.3905469552E+00      0.9226722516E+00
          0                 2           2             2    2     1      -0.7278676856E-03       2    2    1        -0.3905483191E-01      0.9125238079E-01
          0                 3           1             2    2     1       0.4956507107E-04       2    2    1         0.2733838133E-02      0.6293994993E-02

    ------------------------------------------------
       NWT REQUIRED            3 OUTER ITERATIONS 
       AND A TOTAL OF          5 INNER ITERATIONS.
    ------------------------------------------------

 NO OUTPUT CONTROL FOR STRESS PERIOD    4   TIME STEP   12
 
 SOLVING FOR HEAD 
                                                   Max.-Head-Change                         Max.-Flux-Residual
  Residual-Control   Outer-Iter.   Inner-Iter.     Column Row Layer    Maximum-Head-Change  Column Row Layer    Maximum-Flux-Residual          L2-NORM 
          0                 1           2             2    2     1       0.7438639107E-02       2    2    1         0.3882289088E+00      0.8963546897E+00
          0                 2           2             2    2     1      -0.7235787660E-03       2    2    1        -0.3882302495E-01      0.8873947831E-01
          0                 3           1             2    2     1       0.4927301152E-04       2    2    1         0.2717611634E-02      0.6128345566E-02

    ------------------------------------------------
       NWT REQUIRED            3 OUTER ITERATIONS 
       AND A TOTAL OF          5 INNER ITERATIONS.
    ------------------------------------------------

 NO OUTPUT CONTROL FOR STRESS PERIOD    4   TIME STEP   13
 
 SOLVING FOR HEAD 
                                                   Max.-Head-Change                         Max.-Flux-Residual
  Residual-Control   Outer-Iter.   Inner-Iter.     Column Row Layer    Maximum-Head-Change  Column Row Layer    Maximum-Flux-Residual          L2-NORM 
          0                 1           2             2    2     1       0.7395066856E-02       2    2    1         0.3859382668E+00      0.8728755287E+00
          0                 2           2             2    2     1      -0.7193403400E-03       2    2    1        -0.3859395849E-01      0.8649868429E-01
          0                 3           1             2    2     1       0.4898439107E-04       2    2    1         0.2701577017E-02      0.5982861611E-02

    ------------------------------------------------
       NWT REQUIRED            3 OUTER ITERATIONS 
       AND A TOTAL OF          5 INNER ITERATIONS.
    ------------------------------------------------

 NO OUTPUT CONTROL FOR STRESS PERIOD    4   TIME STEP   14
 
 SOLVING FOR HEAD 
                                                   Max.-Head-Change                         Max.-Flux-Residual
  Residual-Control   Outer-Iter.   Inner-Iter.     Column Row Layer    Maximum-Head-Change  Column Row Layer    Maximum-Flux-Residual          L2-NORM 
          0                 1           2             2    2     1       0.7352092727E-02       2    2    1         0.3836791000E+00      0.8518993382E+00
          0                 2           2             2    2     1      -0.7151600960E-03       2    2    1        -0.3836803961E-01      0.8449561466E-01
          0                 3           1             2    2     1       0.4869973229E-04       2    2    1         0.2685762706E-02      0.5850895979E-02

    ------------------------------------------------
       NWT REQUIRED            3 OUTER ITERATIONS 
       AND A TOTAL OF          5 INNER ITERATIONS.
    ------------------------------------------------

 NO OUTPUT CONTROL FOR STRESS PERIOD    4   TIME STEP   15
 
 SOLVING FOR HEAD 
                                                   Max.-Head-Change                         Max.-Flux-Residual
  Residual-Control   Outer-Iter.   Inner-Iter.     Column Row Layer    Maximum-Head-Change  Column Row Layer    Maximum-Flux-Residual          L2-NORM 
          0                 1           2             2    2     1       0.7309707230E-02       2    2    1         0.3814509450E+00      0.8331304374E+00
          0                 2           2             2    2     1      -0.7110371101E-03       2    2    1        -0.3814522195E-01      0.8270111232E-01
          0                 3           1             2    2     1       0.4841897223E-04       2    2    1         0.2670165472E-02      0.5733030289E-02

    ------------------------------------------------
       NWT REQUIRED            3 OUTER ITERATIONS 
       AND A TOTAL OF          5 INNER ITERATIONS.
    ------------------------------------------------

 NO OUTPUT CONTROL FOR STRESS PERIOD    4   TIME STEP   16
 
 SOLVING FOR HEAD 
                                                   Max.-Head-Change                         Max.-Flux-Residual
  Residual-Control   Outer-Iter.   Inner-Iter.     Column Row Layer    Maximum-Head-Change  Column Row Layer    Maximum-Flux-Residual          L2-NORM 
          0                 1           2             2    2     1       0.7267901031E-02       2    2    1         0.3792533099E+00      0.8162929267E+00
          0                 2           2             2    2     1      -0.7069704754E-03       2    2    1        -0.3792545636E-01      0.8109084788E-01
          0                 3           1             2    2     1       0.4814204983E-04       2    2    1         0.2654781905E-02      0.5626816912E-02

    ------------------------------------------------
       NWT REQUIRED            3 OUTER ITERATIONS 
       AND A TOTAL OF          5 INNER ITERATIONS.
    ------------------------------------------------

 NO OUTPUT CONTROL FOR STRESS PERIOD    4   TIME STEP   17
 
 SOLVING FOR HEAD 
                                                   Max.-Head-Change                         Max.-Flux-Residual
  Residual-Control   Outer-Iter.   Inner-Iter.     Column Row Layer    Maximum-Head-Change  Column Row Layer    Maximum-Flux-Residual          L2-NORM 
          0                 1           2             2    2     1       0.7226578003E-02       2    2    1         0.3770811483E+00      0.8011506912E+00
          0                 2           2             2    2     1      -0.7029508402E-03       2    2    1        -0.3770823813E-01      0.7964098574E-01
          0                 3           1             2    2     1       0.4786832772E-04       2    2    1         0.2639576631E-02      0.5531315593E-02

    ------------------------------------------------
       NWT REQUIRED            3 OUTER ITERATIONS 
       AND A TOTAL OF          5 INNER ITERATIONS.
    ------------------------------------------------

 NO OUTPUT CONTROL FOR STRESS PERIOD    4   TIME STEP   18
 
 SOLVING FOR HEAD 
                                                   Max.-Head-Change                         Max.-Flux-Residual
  Residual-Control   Outer-Iter.   Inner-Iter.     Column Row Layer    Maximum-Head-Change  Column Row Layer    Maximum-Flux-Residual          L2-NORM 
          0                 1           2             2    2     1       0.7185817090E-02       2    2    1         0.3749386008E+00      0.7875070108E+00
          0                 2           2             2    2     1      -0.6989858848E-03       2    2    1        -0.3749398137E-01      0.7833273815E-01
          0                 3           1             2    2     1       0.4759832991E-04       2    2    1         0.2624578687E-02      0.5445000809E-02

    ------------------------------------------------
       NWT REQUIRED            3 OUTER ITERATIONS 
       AND A TOTAL OF          5 INNER ITERATIONS.
    ------------------------------------------------

 NO OUTPUT CONTROL FOR STRESS PERIOD    4   TIME STEP   19
 
 SOLVING FOR HEAD 
                                                   Max.-Head-Change                         Max.-Flux-Residual
  Residual-Control   Outer-Iter.   Inner-Iter.     Column Row Layer    Maximum-Head-Change  Column Row Layer    Maximum-Flux-Residual          L2-NORM 
          0                 1           2             2    2     1       0.7145522110E-02       2    2    1         0.3728206354E+00      0.7751638527E+00
          0                 2           2             2    2     1      -0.6950662525E-03       2    2    1        -0.3728218286E-01      0.7714856412E-01
          0                 3           1             2    2     1       0.4733141760E-04       2    2    1         0.2609752820E-02      0.5367115503E-02

    ------------------------------------------------
       NWT REQUIRED            3 OUTER ITERATIONS 
       AND A TOTAL OF          5 INNER ITERATIONS.
    ------------------------------------------------

 NO OUTPUT CONTROL FOR STRESS PERIOD    4   TIME STEP   20
 
 SOLVING FOR HEAD 
                                                   Max.-Head-Change                         Max.-Flux-Residual
  Residual-Control   Outer-Iter.   Inner-Iter.     Column Row Layer    Maximum-Head-Change  Column Row Layer    Maximum-Flux-Residual          L2-NORM 
          0                 1           2             2    2     1       0.7105773113E-02       2    2    1         0.3707313907E+00      0.7639714519E+00
          0                 2           2             2    2     1      -0.6911997295E-03       2    2    1        -0.3707325647E-01      0.7607257109E-01
          0                 3           1             2    2     1       0.4706812214E-04       2    2    1         0.2595127967E-02      0.5295636288E-02

    ------------------------------------------------
       NWT REQUIRED            3 OUTER ITERATIONS 
       AND A TOTAL OF          5 INNER ITERATIONS.
    ------------------------------------------------

 NO OUTPUT CONTROL FOR STRESS PERIOD    4   TIME STEP   21
 
 SOLVING FOR HEAD 
                                                   Max.-Head-Change                         Max.-Flux-Residual
  Residual-Control   Outer-Iter.   Inner-Iter.     Column Row Layer    Maximum-Head-Change  Column Row Layer    Maximum-Flux-Residual          L2-NORM 
          0                 1           2             2    2     1       0.7066561038E-02       2    2    1         0.3686704548E+00      0.7538013824E+00
          0                 2           2             2    2     1      -0.6873854355E-03       2    2    1        -0.3686716101E-01      0.7509378762E-01
          0                 3           1             2    2     1       0.4680838269E-04       2    2    1         0.2580701293E-02      0.5230576660E-02

    ------------------------------------------------
       NWT REQUIRED            3 OUTER ITERATIONS 
       AND A TOTAL OF          5 INNER ITERATIONS.
    ------------------------------------------------

 NO OUTPUT CONTROL FOR STRESS PERIOD    4   TIME STEP   22
 
 SOLVING FOR HEAD 
                                                   Max.-Head-Change                         Max.-Flux-Residual
  Residual-Control   Outer-Iter.   Inner-Iter.     Column Row Layer    Maximum-Head-Change  Column Row Layer    Maximum-Flux-Residual          L2-NORM 
          0                 1           2             2    2     1       0.7027878183E-02       2    2    1         0.3666373575E+00      0.7445176753E+00
          0                 2           2             2    2     1      -0.6836226205E-03       2    2    1        -0.3666384943E-01      0.7419851630E-01
          0                 3           1             2    2     1       0.4655214908E-04       2    2    1         0.2566469479E-02      0.5171094733E-02

    ------------------------------------------------
       NWT REQUIRED            3 OUTER ITERATIONS 
       AND A TOTAL OF          5 INNER ITERATIONS.
    ------------------------------------------------

 NO OUTPUT CONTROL FOR STRESS PERIOD    4   TIME STEP   23
 
 SOLVING FOR HEAD 
                                                   Max.-Head-Change                         Max.-Flux-Residual
  Residual-Control   Outer-Iter.   Inner-Iter.     Column Row Layer    Maximum-Head-Change  Column Row Layer    Maximum-Flux-Residual          L2-NORM 
          0                 1           2             2    2     1       0.6989628530E-02       2    2    1         0.3646271360E+00      0.7360061713E+00
          0                 2           2             2    2     1      -0.6799019457E-03       2    2    1        -0.3646282549E-01      0.7337673028E-01
          0                 3           1             2    2     1       0.4629878561E-04       2    2    1         0.2552397840E-02      0.5116042803E-02

    ------------------------------------------------
       NWT REQUIRED            3 OUTER ITERATIONS 
       AND A TOTAL OF          5 INNER ITERATIONS.
    ------------------------------------------------

 NO OUTPUT CONTROL FOR STRESS PERIOD    4   TIME STEP   24
 
 SOLVING FOR HEAD 
                                                   Max.-Head-Change                         Max.-Flux-Residual
  Residual-Control   Outer-Iter.   Inner-Iter.     Column Row Layer    Maximum-Head-Change  Column Row Layer    Maximum-Flux-Residual          L2-NORM 
          0                 1           2             2    2     1       0.6951891894E-02       2    2    1         0.3626439390E+00      0.7281990690E+00
          0                 2           2             2    2     1      -0.6762311728E-03       2    2    1        -0.3626450401E-01      0.7262139131E-01
          0                 3           1             2    2     1       0.4604881935E-04       2    2    1         0.2538515327E-02      0.5065316708E-02

    ------------------------------------------------
       NWT REQUIRED            3 OUTER ITERATIONS 
       AND A TOTAL OF          5 INNER ITERATIONS.
    ------------------------------------------------

 NO OUTPUT CONTROL FOR STRESS PERIOD    4   TIME STEP   25
 
 SOLVING FOR HEAD 
                                                   Max.-Head-Change                         Max.-Flux-Residual
  Residual-Control   Outer-Iter.   Inner-Iter.     Column Row Layer    Maximum-Head-Change  Column Row Layer    Maximum-Flux-Residual          L2-NORM 
          0                 1           2             2    2     1       0.6914661345E-02       2    2    1         0.3606873414E+00      0.7209915511E+00
          0                 2           2             2    2     1      -0.6726096300E-03       2    2    1        -0.3606884255E-01      0.7192342868E-01
          0                 3           1             2    2     1       0.4580220627E-04       2    2    1         0.2524819050E-02      0.5018425722E-02

    ------------------------------------------------
       NWT REQUIRED            3 OUTER ITERATIONS 
       AND A TOTAL OF          5 INNER ITERATIONS.
    ------------------------------------------------

 NO OUTPUT CONTROL FOR STRESS PERIOD    4   TIME STEP   26
 
 SOLVING FOR HEAD 
                                                   Max.-Head-Change                         Max.-Flux-Residual
  Residual-Control   Outer-Iter.   Inner-Iter.     Column Row Layer    Maximum-Head-Change  Column Row Layer    Maximum-Flux-Residual          L2-NORM 
          0                 1           2             2    2     1       0.6877928148E-02       2    2    1         0.3587569838E+00      0.7143396397E+00
          0                 2           2             2    2     1      -0.6690364662E-03       2    2    1        -0.3587580513E-01      0.7127809270E-01
          0                 3           1             2    2     1       0.4555888698E-04       2    2    1         0.2511306422E-02      0.4975278795E-02

    ------------------------------------------------
       NWT REQUIRED            3 OUTER ITERATIONS 
       AND A TOTAL OF          5 INNER ITERATIONS.
    ------------------------------------------------

 NO OUTPUT CONTROL FOR STRESS PERIOD    4   TIME STEP   27
 
 SOLVING FOR HEAD 
                                                   Max.-Head-Change                         Max.-Flux-Residual
  Residual-Control   Outer-Iter.   Inner-Iter.     Column Row Layer    Maximum-Head-Change  Column Row Layer    Maximum-Flux-Residual          L2-NORM 
          0                 1           2             2    2     1       0.6841597596E-02       2    2    1         0.3568478487E+00      0.7081476880E+00
          0                 2           2             2    2     1      -0.6655024691E-03       2    2    1        -0.3568488996E-01      0.7067626704E-01
          0                 3           1             2    2     1       0.4531823546E-04       2    2    1         0.2497942376E-02      0.4934773698E-02

    ------------------------------------------------
       NWT REQUIRED            3 OUTER ITERATIONS 
       AND A TOTAL OF          5 INNER ITERATIONS.
    ------------------------------------------------

 NO OUTPUT CONTROL FOR STRESS PERIOD    4   TIME STEP   28
 
 SOLVING FOR HEAD 
                                                   Max.-Head-Change                         Max.-Flux-Residual
  Residual-Control   Outer-Iter.   Inner-Iter.     Column Row Layer    Maximum-Head-Change  Column Row Layer    Maximum-Flux-Residual          L2-NORM 
          0                 1           2             2    2     1       0.6805750388E-02       2    2    1         0.3549641547E+00      0.7023917770E+00
          0                 2           2             2    2     1      -0.6620154888E-03       2    2    1        -0.3549651895E-01      0.7011597016E-01
          0                 3           1             2    2     1       0.4508078519E-04       2    2    1         0.2484756405E-02      0.4897013193E-02

    ------------------------------------------------
       NWT REQUIRED            3 OUTER ITERATIONS 
       AND A TOTAL OF          5 INNER ITERATIONS.
    ------------------------------------------------

 NO OUTPUT CONTROL FOR STRESS PERIOD    4   TIME STEP   29
 
 SOLVING FOR HEAD 
                                                   Max.-Head-Change                         Max.-Flux-Residual
  Residual-Control   Outer-Iter.   Inner-Iter.     Column Row Layer    Maximum-Head-Change  Column Row Layer    Maximum-Flux-Residual          L2-NORM 
          0                 1           2             2    2     1       0.5350702560E-02       2    2    1         0.2788864371E+00      0.6872008100E+00
          0                 2           2             2    2     1      -0.5204783244E-03       2    2    1        -0.2788870166E-01      0.6809450817E-01
          0                 3           1             2    2     1       0.3544263565E-04       2    2    1         0.1952209401E-02      0.4709191553E-02

    ------------------------------------------------
       NWT REQUIRED            3 OUTER ITERATIONS 
       AND A TOTAL OF          5 INNER ITERATIONS.
    ------------------------------------------------

 NO OUTPUT CONTROL FOR STRESS PERIOD    4   TIME STEP   30



 STREAM LISTING     PERIOD      4   STEP       30

 LAYER ROW COL. STREAM  RCH.  FLOW INTO     FLOW TO   FLOW OUT OF   OVRLND.     DIRECT     STREAM       STREAM     STREAM     STREAM   STREAMBED  STREAMBED
                SEG.NO.  NO.  STRM. RCH.    AQUIFER    STRM. RCH.    RUNOFF     PRECIP       ET          HEAD       DEPTH      WIDTH   CONDCTNC.   GRADIENT

   1    1    1     1     1    6.2247E+01  3.7977E-01   6.1867E+01  0.000E+00  0.000E+00  0.000E+00  1.09460E+03  1.553E+00  1.854E+01  8.342E-02  1.518E+00
   1    2    2     1     2    6.1867E+01  5.8816E-01   6.1279E+01  0.000E+00  0.000E+00  0.000E+00  1.08961E+03  1.547E+00  1.848E+01  1.294E-01  1.516E+00
   1    3    3     1     3    6.1279E+01  5.0162E-01   6.0777E+01  0.000E+00  0.000E+00  0.000E+00  1.08396E+03  1.540E+00  1.841E+01  1.105E-01  1.513E+00
   1    3    4     1     4    6.0777E+01  4.6193E-01   6.0316E+01  0.000E+00  0.000E+00  0.000E+00  1.07894E+03  1.534E+00  1.836E+01  1.019E-01  1.511E+00
   1    4    5     2     1    5.8316E+01  3.9026E-01   5.7925E+01  0.000E+00  0.000E+00  0.000E+00  1.07394E+03  2.003E+00  1.200E+01  7.800E-02  1.668E+00
   1    5    6     2     2    5.7925E+01  2.9977E-01   5.7626E+01  0.000E+00  0.000E+00  0.000E+00  1.06851E+03  1.996E+00  1.200E+01  6.000E-02  1.665E+00
   1    6    6     2     3    5.7626E+01  2.9940E-01   5.7326E+01  0.000E+00  0.000E+00  0.000E+00  1.06378E+03  1.990E+00  1.200E+01  6.000E-02  1.663E+00
   1    7    6     2     4    5.7326E+01  2.9902E-01   5.7027E+01  0.000E+00  0.000E+00  0.000E+00  1.05906E+03  1.984E+00  1.200E+01  6.000E-02  1.661E+00
   1    8    6     2     5    5.7027E+01  2.9865E-01   5.6728E+01  0.000E+00  0.000E+00  0.000E+00  1.05434E+03  1.977E+00  1.200E+01  6.000E-02  1.659E+00
   1    3    5     3     1    2.0000E+00  2.8252E-01   1.7175E+00  0.000E+00  0.000E+00  0.000E+00  1.07555E+03  1.909E+00  9.636E+00  7.227E-02  1.955E+00
   1    3    6     3     2    1.7175E+00  2.4905E-01   1.4684E+00  0.000E+00  0.000E+00  0.000E+00  1.07264E+03  1.727E+00  8.909E+00  6.682E-02  1.864E+00
   1    3    7     3     3    1.4684E+00  1.9718E-01   1.2712E+00  0.000E+00  0.000E+00  0.000E+00  1.06987E+03  1.555E+00  8.218E+00  5.547E-02  1.777E+00
   1    4    8     3     4    1.2712E+00  2.2567E-01   1.0456E+00  0.000E+00  0.000E+00  0.000E+00  1.06682E+03  1.364E+00  7.455E+00  6.709E-02  1.682E+00
   1    5    8     3     5    1.0456E+00  1.5790E-01   8.8768E-01  0.000E+00  0.000E+00  0.000E+00  1.06362E+03  1.164E+00  6.655E+00  4.991E-02  1.582E+00
   1    6    8     3     6    8.8768E-01  5.5980E-02   8.3170E-01  0.000E+00  0.000E+00  0.000E+00  1.06158E+03  1.036E+00  6.145E+00  1.844E-02  1.518E+00
   1    5   10     4     1    1.0000E+01  9.0919E-02   9.9091E+00  0.000E+00  0.000E+00  0.000E+00  1.07836E+03  6.368E-01  1.000E+01  2.500E-02  1.212E+00
   1    5    9     4     2    9.9091E+00  1.8158E-01   9.7275E+00  0.000E+00  0.000E+00  0.000E+00  1.07154E+03  6.315E-01  1.000E+01  5.000E-02  1.211E+00
   1    6    8     4     3    9.7275E+00  1.2689E-01   9.6006E+00  0.000E+00  0.000E+00  0.000E+00  1.06381E+03  6.256E-01  1.000E+01  3.500E-02  1.209E+00
   1    6    8     5     1    1.0432E+01  2.2686E-01   1.0205E+01  0.000E+00  0.000E+00  0.000E+00  1.05868E+03  6.790E-01  1.542E+01  6.166E-02  1.226E+00
   1    7    7     5     2    1.0205E+01  2.7894E-01   9.9265E+00  0.000E+00  0.000E+00  0.000E+00  1.05417E+03  6.732E-01  1.519E+01  7.594E-02  1.224E+00
   1    8    7     5     3    9.9265E+00  1.9221E-01   9.7343E+00  0.000E+00  0.000E+00  0.000E+00  1.04992E+03  6.676E-01  1.497E+01  5.241E-02  1.223E+00
   1    8    6     5     4    9.7343E+00  1.3577E-01   9.5985E+00  0.000E+00  0.000E+00  0.000E+00  1.04691E+03  6.637E-01  1.482E+01  3.706E-02  1.221E+00
   1    9    6     6     1    6.6327E+01  3.1138E-01   6.6016E+01  0.000E+00  0.000E+00  0.000E+00  1.04492E+03  2.190E+00  1.200E+01  6.000E-02  1.730E+00
   1   10    7     6     2    6.6016E+01  3.1101E-01   6.5705E+01  0.000E+00  0.000E+00  0.000E+00  1.04037E+03  2.183E+00  1.200E+01  6.000E-02  1.728E+00
   1   11    7     6     3    6.5705E+01  3.1064E-01   6.5394E+01  0.000E+00  0.000E+00  0.000E+00  1.03581E+03  2.177E+00  1.200E+01  6.000E-02  1.726E+00
   1   12    7     6     4    6.5394E+01  3.1026E-01   6.5084E+01  0.000E+00  0.000E+00  0.000E+00  1.03126E+03  2.171E+00  1.200E+01  6.000E-02  1.724E+00
   1   13    7     6     5    6.5084E+01  2.1634E-02   6.5062E+01  0.000E+00  0.000E+00  0.000E+00  1.02808E+03  2.168E+00  1.200E+01  2.400E-02  3.005E-01
   1   14    9     7     1    1.5000E+02  1.3316E+00   1.4867E+02  0.000E+00  0.000E+00  0.000E+00  1.03987E+03  2.288E+00  5.529E+01  5.593E-01  7.936E-01
   1   13    8     7     2    1.4867E+02  1.8148E+00   1.4685E+02  0.000E+00  0.000E+00  0.000E+00  1.03478E+03  2.279E+00  5.526E+01  6.148E-01  9.840E-01
   1   13    7     7     3    1.4685E+02  1.4044E+00   1.4545E+02  0.000E+00  0.000E+00  0.000E+00  1.02969E+03  2.271E+00  5.522E+01  5.585E-01  8.382E-01
   1   13    6     8     1    2.1051E+02  1.0054E+00   2.0951E+02  0.000E+00  0.000E+00  0.000E+00  1.02507E+03  3.196E+00  4.634E+01  4.722E-01  7.097E-01
   1   13    5     8     2    2.0951E+02  1.9100E-01   2.0931E+02  0.000E+00  0.000E+00  0.000E+00  1.01882E+03  3.192E+00  4.629E+01  4.717E-01  1.350E-01
   1   13    4     8     3    2.0931E+02 -2.6809E+00   2.1200E+02  0.000E+00  0.000E+00  0.000E+00  1.01257E+03  3.199E+00  4.639E+01  4.727E+00 -1.890E-01
   1   13    3     8     4    2.1200E+02 -3.8539E+00   2.1585E+02  0.000E+00  0.000E+00  0.000E+00  1.00634E+03  3.218E+00  4.666E+01  4.755E+00 -2.702E-01
   1   13    2     8     5    2.1585E+02 -2.7437E+00   2.1859E+02  0.000E+00  0.000E+00  0.000E+00  1.00011E+03  3.236E+00  4.693E+01  4.782E+00 -1.912E-01
   1   13    1     8     6    2.1859E+02 -2.0240E+00   2.2062E+02  0.000E+00  0.000E+00  0.000E+00  9.95125E+02  3.250E+00  4.712E+01  2.881E+00 -2.342E-01





UNSATURATED ZONE PACKAGE VOLUMETRIC BUDGET FOR  TIME STEP    30 STRESS PERIOD    4
  ------------------------------------------------------------------------------



     CUMULATIVE VOLUMES      L**3       RATES FOR THIS TIME STEP      L**3/T
     ------------------                 ------------------------

           IN:                                      IN:
           ---                                      ---
        INFILTRATION =     6759998.6182          INFILTRATION =           0.8475

          OUT:                                     OUT:
          ----                                     ----
              UZF ET =     5917459.0304                UZF ET =           0.7500
        UZF RECHARGE =       73224.0000          UZF RECHARGE =       0.0000E+00

            IN - OUT =      769315.5878              IN - OUT =       9.7500E-02

          STORAGE:                                 STORAGE:
          --------                                 --------
      STORAGE CHANGE =      769315.6504        STORAGE CHANGE =       9.7500E-02

 PERCENT DISCREPANCY IS DIFFERENCE BETWEEN IN-OUT MINUS CHANGE IN STORAGE
 DIVIDED BY THE AVERAGE OF IN AND OUT TIMES 100

 PERCENT DISCREPANCY =           0.00     PERCENT DISCREPANCY =           0.00






1
  VOLUMETRIC BUDGET FOR AGRICULTURAL FIELDS AT  END OF TIME STEP   30, STRESS PERIOD   4
  ------------------------------------------------------------------------------

     CUMULATIVE VOLUMES      L**3       RATES FOR THIS TIME STEP      L**3/T
     ------------------                 ------------------------

           IN:                                      IN:
           ---                                      ---
               AG WELLS  =           0.0000                 AG WELLS  =           0.0000
      DIVERSION SEGMENTS =           0.0000        DIVERSION SEGMENTS =           0.0000
           GW IRRIGATION =           0.0000             GW IRRIGATION =           0.0000
           SW IRRIGATION =           0.0000             SW IRRIGATION =           0.0000
        SYSTEM LOSSES GW =           0.0000          SYSTEM LOSSES GW =           0.0000
        SYSTEM LOSSES SW =           0.0000          SYSTEM LOSSES SW =           0.0000

                TOTAL IN =           0.0000                  TOTAL IN =           0.0000

          OUT:                                     OUT:
          ----                                     ----
               AG WELLS  =           0.0000                 AG WELLS  =           0.0000
      DIVERSION SEGMENTS =           0.0000        DIVERSION SEGMENTS =           0.0000
           GW IRRIGATION =           0.0000             GW IRRIGATION =           0.0000
           SW IRRIGATION =           0.0000             SW IRRIGATION =           0.0000
        SYSTEM LOSSES GW =           0.0000          SYSTEM LOSSES GW =           0.0000
        SYSTEM LOSSES SW =           0.0000          SYSTEM LOSSES SW =           0.0000

               TOTAL OUT =           0.0000                 TOTAL OUT =           0.0000

                IN - OUT =           0.0000                  IN - OUT =           0.0000

     PERCENT DISCREPANCY =           0.00         PERCENT DISCREPANCY =           0.00



1
  VOLUMETRIC BUDGET FOR ENTIRE MODEL AT END OF TIME STEP   30, STRESS PERIOD   4
  ------------------------------------------------------------------------------

     CUMULATIVE VOLUMES      L**3       RATES FOR THIS TIME STEP      L**3/T
     ------------------                 ------------------------

           IN:                                      IN:
           ---                                      ---
             STORAGE     =     4269829.5000               STORAGE     =           1.1052
       CONSTANT HEAD     =           0.0000         CONSTANT HEAD     =           0.0000
     HEAD DEP BOUNDS     =     2276621.5000       HEAD DEP BOUNDS     =           0.2855
      STREAM LEAKAGE     =    98974160.0000        STREAM LEAKAGE     =          12.9321
        UZF RECHARGE     =       73223.9531          UZF RECHARGE     =           0.0000
               GW ET     =           0.0000                 GW ET     =           0.0000
     SURFACE LEAKAGE     =           0.0000       SURFACE LEAKAGE     =           0.0000
           AG WELLS      =           0.0000             AG WELLS      =           0.0000

                TOTAL IN =   105593832.0000                  TOTAL IN =          14.3228

          OUT:                                     OUT:
          ----                                     ----
             STORAGE     =    22369452.0000               STORAGE     =           2.7188
       CONSTANT HEAD     =           0.0000         CONSTANT HEAD     =           0.0000
     HEAD DEP BOUNDS     =     2327708.2500       HEAD DEP BOUNDS     =           0.2974
      STREAM LEAKAGE     =    80891960.0000        STREAM LEAKAGE     =          11.3025
        UZF RECHARGE     =           0.0000          UZF RECHARGE     =           0.0000
               GW ET     =        9869.2041                 GW ET     =       4.4240E-03
     SURFACE LEAKAGE     =           0.0000       SURFACE LEAKAGE     =           0.0000
           AG WELLS      =           0.0000             AG WELLS      =           0.0000

               TOTAL OUT =   105598992.0000                 TOTAL OUT =          14.3232

                IN - OUT =       -5160.0000                  IN - OUT =      -4.5967E-04

     PERCENT DISCREPANCY =          -0.00         PERCENT DISCREPANCY =          -0.00






         TIME SUMMARY AT END OF TIME STEP   30 IN STRESS PERIOD    4
                    SECONDS     MINUTES      HOURS       DAYS        YEARS
                    -----------------------------------------------------------
   TIME STEP LENGTH  87667.      1461.1      24.352      1.0147     2.77799E-03
 STRESS PERIOD TIME 2.63000E+06  43833.      730.56      30.440     8.33397E-02
         TOTAL TIME 7.97639E+06 1.32940E+05  2215.7      92.319     0.25276    
1
1
                            STRESS PERIOD NO.    5, LENGTH =   2630000.    
                            -----------------------------------------------

                              NUMBER OF TIME STEPS =    30

                               MULTIPLIER FOR DELT =     1.000

                            INITIAL TIME STEP SIZE =   87666.66    

 REUSING NON-PARAMETER GHB CELLS FROM LAST STRESS PERIOD

      2 GHB CELLS

 REUSING STREAM SEGMENT DATA FROM LAST STRESS PERIOD



            AREAL INFILTRATION RATE
 READING ON UNIT   19 WITH FORMAT: (FREE)              

            1           2           3           4           5           6           7           8           9          10
 ........................................................................................................................
   1   1.0000E-10  2.0000E-10   0.000       0.000       0.000       0.000       0.000       0.000       0.000       0.000    
   2   2.0000E-10  1.0000E-10  2.0000E-10   0.000       0.000      8.0000E-10  8.0000E-10  5.0000E-10   0.000       0.000    
   3    0.000      5.0000E-10  1.0000E-10  1.0000E-10  8.0000E-10  8.0000E-10  5.0000E-10  5.0000E-10   0.000       0.000    
   4   8.0000E-10  5.0000E-10  1.0000E-10  1.0000E-10  1.0000E-10  1.0000E-10  1.0000E-10  1.0000E-10  2.0000E-10   0.000    
   5   8.0000E-10  5.0000E-10  1.0000E-10  1.0000E-10  1.0000E-10  1.0000E-10  1.0000E-10  1.0000E-10  1.0000E-10  1.0000E-10
   6   8.0000E-10  5.0000E-10  5.0000E-10  2.0000E-10  2.0000E-10  1.0000E-10  1.0000E-10  1.0000E-10  1.0000E-10  5.0000E-10
   7   8.0000E-10  5.0000E-10  5.0000E-10  2.0000E-10  2.0000E-10  1.0000E-10  1.0000E-10  2.0000E-10  2.0000E-10   0.000    
   8    0.000      5.0000E-10  5.0000E-10  2.0000E-10  2.0000E-10  1.0000E-10  1.0000E-10  2.0000E-10  5.0000E-10   0.000    
   9    0.000      5.0000E-10  5.0000E-10  2.0000E-10  2.0000E-10  1.0000E-10  1.0000E-10  2.0000E-10  5.0000E-10   0.000    
  10    0.000      5.0000E-10  5.0000E-10  2.0000E-10  2.0000E-10  1.0000E-10  1.0000E-10  2.0000E-10  5.0000E-10  8.0000E-10
  11    0.000      1.0000E-10  1.0000E-10  1.0000E-10  1.0000E-10  1.0000E-10  1.0000E-10  2.0000E-10  5.0000E-10   0.000    
  12   1.0000E-10  1.0000E-10  1.0000E-10  1.0000E-10  1.0000E-10  1.0000E-10  1.0000E-10  1.0000E-10  2.0000E-10   0.000    
  13   1.0000E-10  1.0000E-10  2.0000E-10  2.0000E-10  2.0000E-10  2.0000E-10  2.0000E-10  1.0000E-10  1.0000E-10   0.000    
  14    0.000      2.0000E-10  5.0000E-10  5.0000E-10  5.0000E-10  5.0000E-10  5.0000E-10  2.0000E-10  1.0000E-10   0.000    
  15    0.000       0.000      8.0000E-10  8.0000E-10  8.0000E-10  8.0000E-10   0.000       0.000       0.000       0.000    

                  ET RATE =  2.500000E-08

 USING ET EXTINCTION DEPTH FROM PREVIOUS STRESS PERIOD. CURRENT PERIOD IS:       5

 USING EXTINCTION WATER CONTENT FROM PREVIOUS STRESS PERIOD. CURRENT PERIOD IS:       5

 USING AIR ENTRY PRESSURE FROM PREVIOUS STRESS PERIOD. CURRENT PERIOD IS:       5

 USING ROOT PRESSURE HEAD FROM PREVIOUS STRESS PERIOD. CURRENT PERIOD IS:       5

 USING ROOT ACTIVITY FROM PREVIOUS STRESS PERIOD. CURRENT PERIOD IS:       5

 PROCESSING AG STRESS PERIOD DATA

 READING AG STRESS PERIOD DATA

 READING IRRIGATION WELL

 END PROCESSING AG STRESS PERIOD DATA OPTIONS
 
 SOLVING FOR HEAD 
                                                   Max.-Head-Change                         Max.-Flux-Residual
  Residual-Control   Outer-Iter.   Inner-Iter.     Column Row Layer    Maximum-Head-Change  Column Row Layer    Maximum-Flux-Residual          L2-NORM 
          0                 1           2             4   13     1      -0.1883719382E-01       4   13    1        -0.1104091054E+01      0.2347076251E+01
          0                 2           2             4   13     1       0.1817347249E-02       4   13    1         0.1095196267E+00      0.2310436834E+00
          0                 3           2             4   13     1      -0.1223476811E-03       4   13    1        -0.7580669818E-02      0.1585851155E-01
          0                 4           1             4   13     1       0.4780420785E-05       4   13    1         0.3045513267E-03      0.6287196067E-03

    ------------------------------------------------
       NWT REQUIRED            4 OUTER ITERATIONS 
       AND A TOTAL OF          7 INNER ITERATIONS.
    ------------------------------------------------

 OUTPUT CONTROL FOR STRESS PERIOD    5   TIME STEP    1
    PRINT BUDGET
    SAVE BUDGET
 UBDSV1 SAVING "         STORAGE" ON UNIT 102 AT TIME STEP  1, STRESS PERIOD   5
 UBDSV2 SAVING "   CONSTANT HEAD" ON UNIT 102 AT TIME STEP  1, STRESS PERIOD   5
 UBDSV1 SAVING "FLOW RIGHT FACE " ON UNIT 102 AT TIME STEP  1, STRESS PERIOD   5
 UBDSV1 SAVING "FLOW FRONT FACE " ON UNIT 102 AT TIME STEP  1, STRESS PERIOD   5

  HEAD DEP BOUNDS   PERIOD    5   STEP     1
 BOUNDARY      1   LAYER   1   ROW    13   COL     1   RATE   -0.297160    
 BOUNDARY      2   LAYER   1   ROW    14   COL     9   RATE    0.285471    



 STREAM LISTING     PERIOD      5   STEP        1

 LAYER ROW COL. STREAM  RCH.  FLOW INTO     FLOW TO   FLOW OUT OF   OVRLND.     DIRECT     STREAM       STREAM     STREAM     STREAM   STREAMBED  STREAMBED
                SEG.NO.  NO.  STRM. RCH.    AQUIFER    STRM. RCH.    RUNOFF     PRECIP       ET          HEAD       DEPTH      WIDTH   CONDCTNC.   GRADIENT

   1    1    1     1     1    2.8000E+01  2.5860E-01   2.7741E+01  0.000E+00  0.000E+00  0.000E+00  1.09427E+03  1.221E+00  1.361E+01  6.126E-02  1.407E+00
   1    2    2     1     2    2.7741E+01  4.0002E-01   2.7341E+01  0.000E+00  0.000E+00  0.000E+00  1.08928E+03  1.217E+00  1.355E+01  9.487E-02  1.406E+00
   1    3    3     1     3    2.7341E+01  3.4070E-01   2.7001E+01  0.000E+00  0.000E+00  0.000E+00  1.08363E+03  1.212E+00  1.348E+01  8.090E-02  1.404E+00
   1    3    4     1     4    2.7001E+01  3.1335E-01   2.6687E+01  0.000E+00  0.000E+00  0.000E+00  1.07861E+03  1.207E+00  1.342E+01  7.448E-02  1.402E+00
   1    4    5     2     1    2.4687E+01  3.2711E-01   2.4360E+01  0.000E+00  0.000E+00  0.000E+00  1.07313E+03  1.194E+00  1.200E+01  7.800E-02  1.398E+00
   1    5    6     2     2    2.4360E+01  2.5111E-01   2.4109E+01  0.000E+00  0.000E+00  0.000E+00  1.06769E+03  1.185E+00  1.200E+01  6.000E-02  1.395E+00
   1    6    6     2     3    2.4109E+01  2.5067E-01   2.3858E+01  0.000E+00  0.000E+00  0.000E+00  1.06297E+03  1.178E+00  1.200E+01  6.000E-02  1.393E+00
   1    7    6     2     4    2.3858E+01  2.5023E-01   2.3608E+01  0.000E+00  0.000E+00  0.000E+00  1.05825E+03  1.170E+00  1.200E+01  6.000E-02  1.390E+00
   1    8    6     2     5    2.3608E+01  2.4978E-01   2.3358E+01  0.000E+00  0.000E+00  0.000E+00  1.05352E+03  1.163E+00  1.200E+01  6.000E-02  1.388E+00
   1    3    5     3     1    2.0000E+00  2.8252E-01   1.7175E+00  0.000E+00  0.000E+00  0.000E+00  1.07555E+03  1.909E+00  9.636E+00  7.227E-02  1.955E+00
   1    3    6     3     2    1.7175E+00  2.4905E-01   1.4684E+00  0.000E+00  0.000E+00  0.000E+00  1.07264E+03  1.727E+00  8.909E+00  6.682E-02  1.864E+00
   1    3    7     3     3    1.4684E+00  1.9718E-01   1.2712E+00  0.000E+00  0.000E+00  0.000E+00  1.06987E+03  1.555E+00  8.218E+00  5.547E-02  1.777E+00
   1    4    8     3     4    1.2712E+00  2.2567E-01   1.0456E+00  0.000E+00  0.000E+00  0.000E+00  1.06682E+03  1.364E+00  7.455E+00  6.709E-02  1.682E+00
   1    5    8     3     5    1.0456E+00  1.5790E-01   8.8768E-01  0.000E+00  0.000E+00  0.000E+00  1.06362E+03  1.164E+00  6.655E+00  4.991E-02  1.582E+00
   1    6    8     3     6    8.8768E-01  5.5980E-02   8.3170E-01  0.000E+00  0.000E+00  0.000E+00  1.06158E+03  1.036E+00  6.145E+00  1.844E-02  1.518E+00
   1    5   10     4     1    1.0000E+01  9.0919E-02   9.9091E+00  0.000E+00  0.000E+00  0.000E+00  1.07836E+03  6.368E-01  1.000E+01  2.500E-02  1.212E+00
   1    5    9     4     2    9.9091E+00  1.8158E-01   9.7275E+00  0.000E+00  0.000E+00  0.000E+00  1.07154E+03  6.315E-01  1.000E+01  5.000E-02  1.211E+00
   1    6    8     4     3    9.7275E+00  1.2689E-01   9.6006E+00  0.000E+00  0.000E+00  0.000E+00  1.06381E+03  6.256E-01  1.000E+01  3.500E-02  1.209E+00
   1    6    8     5     1    1.0432E+01  2.2686E-01   1.0205E+01  0.000E+00  0.000E+00  0.000E+00  1.05868E+03  6.790E-01  1.542E+01  6.166E-02  1.226E+00
   1    7    7     5     2    1.0205E+01  2.7894E-01   9.9265E+00  0.000E+00  0.000E+00  0.000E+00  1.05417E+03  6.732E-01  1.519E+01  7.594E-02  1.224E+00
   1    8    7     5     3    9.9265E+00  1.9221E-01   9.7343E+00  0.000E+00  0.000E+00  0.000E+00  1.04992E+03  6.676E-01  1.497E+01  5.241E-02  1.223E+00
   1    8    6     5     4    9.7343E+00  1.3577E-01   9.5985E+00  0.000E+00  0.000E+00  0.000E+00  1.04691E+03  6.637E-01  1.482E+01  3.706E-02  1.221E+00
   1    9    6     6     1    3.2957E+01  2.6627E-01   3.2691E+01  0.000E+00  0.000E+00  0.000E+00  1.04417E+03  1.438E+00  1.200E+01  6.000E-02  1.479E+00
   1   10    7     6     2    3.2691E+01  2.6584E-01   3.2425E+01  0.000E+00  0.000E+00  0.000E+00  1.03961E+03  1.431E+00  1.200E+01  6.000E-02  1.477E+00
   1   11    7     6     3    3.2425E+01  2.6542E-01   3.2159E+01  0.000E+00  0.000E+00  0.000E+00  1.03506E+03  1.424E+00  1.200E+01  6.000E-02  1.475E+00
   1   12    7     6     4    3.2159E+01  2.6500E-01   3.1894E+01  0.000E+00  0.000E+00  0.000E+00  1.03051E+03  1.417E+00  1.200E+01  6.000E-02  1.472E+00
   1   13    7     6     5    3.1894E+01  3.5108E-03   3.1891E+01  0.000E+00  0.000E+00  0.000E+00  1.02732E+03  1.413E+00  1.200E+01  2.400E-02  4.876E-02
   1   14    9     7     1    1.5000E+02  1.3316E+00   1.4867E+02  0.000E+00  0.000E+00  0.000E+00  1.03987E+03  2.288E+00  5.529E+01  5.593E-01  7.936E-01
   1   13    8     7     2    1.4867E+02  1.8147E+00   1.4685E+02  0.000E+00  0.000E+00  0.000E+00  1.03478E+03  2.279E+00  5.526E+01  6.148E-01  9.839E-01
   1   13    7     7     3    1.4685E+02  1.4041E+00   1.4545E+02  0.000E+00  0.000E+00  0.000E+00  1.02969E+03  2.271E+00  5.522E+01  5.585E-01  8.381E-01
   1   13    6     8     1    1.7734E+02  8.5541E-01   1.7649E+02  0.000E+00  0.000E+00  0.000E+00  1.02487E+03  2.997E+00  4.345E+01  4.428E-01  6.440E-01
   1   13    5     8     2    1.7649E+02  9.1594E-02   1.7639E+02  0.000E+00  0.000E+00  0.000E+00  1.01862E+03  2.994E+00  4.341E+01  4.423E-01  6.902E-02
   1   13    4     8     3    1.7639E+02 -3.3089E+00   1.7970E+02  0.000E+00  0.000E+00  0.000E+00  1.01238E+03  3.004E+00  4.356E+01  4.438E+00 -2.485E-01
   1   13    3     8     4    1.7970E+02 -4.4048E+00   1.8411E+02  0.000E+00  0.000E+00  0.000E+00  1.00615E+03  3.028E+00  4.391E+01  4.474E+00 -3.282E-01
   1   13    2     8     5    1.8411E+02 -3.3542E+00   1.8746E+02  0.000E+00  0.000E+00  0.000E+00  9.99927E+02  3.052E+00  4.426E+01  4.510E+00 -2.479E-01
   1   13    1     8     6    1.8746E+02 -2.3820E+00   1.8984E+02  0.000E+00  0.000E+00  0.000E+00  9.94945E+02  3.070E+00  4.451E+01  2.722E+00 -2.918E-01



 UBDSV3 SAVING "           GW ET" ON UNIT  61 AT TIME STEP  1, STRESS PERIOD   5
 UBDSV3 SAVING "    UZF RECHARGE" ON UNIT  61 AT TIME STEP  1, STRESS PERIOD   5
 UBDSV3 SAVING " SURFACE LEAKAGE" ON UNIT  61 AT TIME STEP  1, STRESS PERIOD   5
 UBDSV3 SAVING "       HORT+DUNN" ON UNIT  61 AT TIME STEP  1, STRESS PERIOD   5
 UBDSV3 SAVING "  STORAGE CHANGE" ON UNIT  61 AT TIME STEP  1, STRESS PERIOD   5


UNSATURATED ZONE PACKAGE VOLUMETRIC BUDGET FOR  TIME STEP     1 STRESS PERIOD    5
  ------------------------------------------------------------------------------



     CUMULATIVE VOLUMES      L**3       RATES FOR THIS TIME STEP      L**3/T
     ------------------                 ------------------------

           IN:                                      IN:
           ---                                      ---
        INFILTRATION =     7160508.3016          INFILTRATION =           4.5686

          OUT:                                     OUT:
          ----                                     ----
              UZF ET =     7001697.7487                UZF ET =          12.3677
        UZF RECHARGE =       73224.0000          UZF RECHARGE =       0.0000E+00

            IN - OUT =       85586.5529              IN - OUT =          -7.7992

          STORAGE:                                 STORAGE:
          --------                                 --------
      STORAGE CHANGE =       85586.6158        STORAGE CHANGE =          -7.7992

 PERCENT DISCREPANCY IS DIFFERENCE BETWEEN IN-OUT MINUS CHANGE IN STORAGE
 DIVIDED BY THE AVERAGE OF IN AND OUT TIMES 100

 PERCENT DISCREPANCY =           0.00     PERCENT DISCREPANCY =           0.00






 

            AG WELLS      PERIOD    5   STEP   1
 AG WELL      1   LAYER   1   ROW     6   COL     4   RATE   -0.620175    
 AG WELL      2   LAYER   1   ROW     6   COL     5   RATE   -0.620175    
 AG WELL      3   LAYER   1   ROW     7   COL     4   RATE   -0.620175    
 AG WELL      4   LAYER   1   ROW     7   COL     5   RATE   -0.620175    
 AG WELL      5   LAYER   1   ROW     8   COL     4   RATE   -0.620175    
 AG WELL      6   LAYER   1   ROW     8   COL     5   RATE   -0.620175    
 
 

        GW IRRIGATION     PERIOD    5   STEP   1
 AG WELL      1   ROW     6   COL     4   RATE    0.620175    
 AG WELL      2   ROW     6   COL     5   RATE    0.620175    
 AG WELL      3   ROW     7   COL     4   RATE    0.620175    
 AG WELL      4   ROW     7   COL     5   RATE    0.620175    
 AG WELL      5   ROW     8   COL     4   RATE    0.620175    
 AG WELL      6   ROW     8   COL     5   RATE    0.620175    
 
1
  VOLUMETRIC BUDGET FOR AGRICULTURAL FIELDS AT  END OF TIME STEP    1, STRESS PERIOD   5
  ------------------------------------------------------------------------------

     CUMULATIVE VOLUMES      L**3       RATES FOR THIS TIME STEP      L**3/T
     ------------------                 ------------------------

           IN:                                      IN:
           ---                                      ---
               AG WELLS  =      326212.1875                 AG WELLS  =           3.7211
      DIVERSION SEGMENTS =           0.0000        DIVERSION SEGMENTS =           0.0000
           GW IRRIGATION =           0.0000             GW IRRIGATION =           0.0000
           SW IRRIGATION =           0.0000             SW IRRIGATION =           0.0000
        SYSTEM LOSSES GW =           0.0000          SYSTEM LOSSES GW =           0.0000
        SYSTEM LOSSES SW =           0.0000          SYSTEM LOSSES SW =           0.0000

                TOTAL IN =      326212.1875                  TOTAL IN =           3.7211

          OUT:                                     OUT:
          ----                                     ----
               AG WELLS  =           0.0000                 AG WELLS  =           0.0000
      DIVERSION SEGMENTS =           0.0000        DIVERSION SEGMENTS =           0.0000
           GW IRRIGATION =      326212.1875             GW IRRIGATION =           3.7211
           SW IRRIGATION =           0.0000             SW IRRIGATION =           0.0000
        SYSTEM LOSSES GW =           0.0000          SYSTEM LOSSES GW =           0.0000
        SYSTEM LOSSES SW =           0.0000          SYSTEM LOSSES SW =           0.0000

               TOTAL OUT =      326212.1875                 TOTAL OUT =           3.7211

                IN - OUT =           0.0000                  IN - OUT =           0.0000

     PERCENT DISCREPANCY =           0.00         PERCENT DISCREPANCY =           0.00



1
  VOLUMETRIC BUDGET FOR ENTIRE MODEL AT END OF TIME STEP    1, STRESS PERIOD   5
  ------------------------------------------------------------------------------

     CUMULATIVE VOLUMES      L**3       RATES FOR THIS TIME STEP      L**3/T
     ------------------                 ------------------------

           IN:                                      IN:
           ---                                      ---
             STORAGE     =     4919736.0000               STORAGE     =           7.4134
       CONSTANT HEAD     =           0.0000         CONSTANT HEAD     =           0.0000
     HEAD DEP BOUNDS     =     2301647.7500       HEAD DEP BOUNDS     =           0.2855
      STREAM LEAKAGE     =    99991656.0000        STREAM LEAKAGE     =          11.6064
        UZF RECHARGE     =       73223.9531          UZF RECHARGE     =           0.0000
               GW ET     =           0.0000                 GW ET     =           0.0000
     SURFACE LEAKAGE     =           0.0000       SURFACE LEAKAGE     =           0.0000
           AG WELLS      =           0.0000             AG WELLS      =           0.0000

                TOTAL IN =   107286264.0000                  TOTAL IN =          19.3053

          OUT:                                     OUT:
          ----                                     ----
             STORAGE     =    22502044.0000               STORAGE     =           1.5125
       CONSTANT HEAD     =           0.0000         CONSTANT HEAD     =           0.0000
     HEAD DEP BOUNDS     =     2353759.2500       HEAD DEP BOUNDS     =           0.2972
      STREAM LEAKAGE     =    82071064.0000        STREAM LEAKAGE     =          13.4499
        UZF RECHARGE     =           0.0000          UZF RECHARGE     =           0.0000
               GW ET     =       38340.7969                 GW ET     =           0.3248
     SURFACE LEAKAGE     =           0.0000       SURFACE LEAKAGE     =           0.0000
           AG WELLS      =      326212.1875             AG WELLS      =           3.7211

               TOTAL OUT =   107291424.0000                 TOTAL OUT =          19.3053

                IN - OUT =       -5160.0000                  IN - OUT =      -1.7166E-05

     PERCENT DISCREPANCY =          -0.00         PERCENT DISCREPANCY =          -0.00






         TIME SUMMARY AT END OF TIME STEP    1 IN STRESS PERIOD    5
                    SECONDS     MINUTES      HOURS       DAYS        YEARS
                    -----------------------------------------------------------
   TIME STEP LENGTH  87667.      1461.1      24.352      1.0147     2.77799E-03
 STRESS PERIOD TIME  87667.      1461.1      24.352      1.0147     2.77799E-03
         TOTAL TIME 8.06406E+06 1.34401E+05  2240.0      93.334     0.25553    
1
 
 SOLVING FOR HEAD 
                                                   Max.-Head-Change                         Max.-Flux-Residual
  Residual-Control   Outer-Iter.   Inner-Iter.     Column Row Layer    Maximum-Head-Change  Column Row Layer    Maximum-Flux-Residual          L2-NORM 
          0                 1           2             4   13     1      -0.1670873104E-01       4   13    1        -0.9789545288E+00      0.2200922980E+01
          0                 2           2             4   13     1       0.1611867557E-02       4   13    1         0.9709872577E-01      0.2170934550E+00
          0                 3           1             4   13     1      -0.1085079654E-03       4   13    1        -0.6720525742E-02      0.1491873278E-01
          0                 4           1             4   13     1       0.4239556269E-05       4   13    1         0.2699938141E-03      0.5923799319E-03

    ------------------------------------------------
       NWT REQUIRED            4 OUTER ITERATIONS 
       AND A TOTAL OF          6 INNER ITERATIONS.
    ------------------------------------------------

 OUTPUT CONTROL FOR STRESS PERIOD    5   TIME STEP    2
    PRINT BUDGET
    SAVE BUDGET
 UBDSV1 SAVING "         STORAGE" ON UNIT 102 AT TIME STEP  2, STRESS PERIOD   5
 UBDSV2 SAVING "   CONSTANT HEAD" ON UNIT 102 AT TIME STEP  2, STRESS PERIOD   5
 UBDSV1 SAVING "FLOW RIGHT FACE " ON UNIT 102 AT TIME STEP  2, STRESS PERIOD   5
 UBDSV1 SAVING "FLOW FRONT FACE " ON UNIT 102 AT TIME STEP  2, STRESS PERIOD   5

  HEAD DEP BOUNDS   PERIOD    5   STEP     2
 BOUNDARY      1   LAYER   1   ROW    13   COL     1   RATE   -0.296895    
 BOUNDARY      2   LAYER   1   ROW    14   COL     9   RATE    0.285471    



 STREAM LISTING     PERIOD      5   STEP        2

 LAYER ROW COL. STREAM  RCH.  FLOW INTO     FLOW TO   FLOW OUT OF   OVRLND.     DIRECT     STREAM       STREAM     STREAM     STREAM   STREAMBED  STREAMBED
                SEG.NO.  NO.  STRM. RCH.    AQUIFER    STRM. RCH.    RUNOFF     PRECIP       ET          HEAD       DEPTH      WIDTH   CONDCTNC.   GRADIENT

   1    1    1     1     1    2.8000E+01  2.5860E-01   2.7741E+01  0.000E+00  0.000E+00  0.000E+00  1.09427E+03  1.221E+00  1.361E+01  6.126E-02  1.407E+00
   1    2    2     1     2    2.7741E+01  4.0002E-01   2.7341E+01  0.000E+00  0.000E+00  0.000E+00  1.08928E+03  1.217E+00  1.355E+01  9.487E-02  1.406E+00
   1    3    3     1     3    2.7341E+01  3.4070E-01   2.7001E+01  0.000E+00  0.000E+00  0.000E+00  1.08363E+03  1.212E+00  1.348E+01  8.090E-02  1.404E+00
   1    3    4     1     4    2.7001E+01  3.1335E-01   2.6687E+01  0.000E+00  0.000E+00  0.000E+00  1.07861E+03  1.207E+00  1.342E+01  7.448E-02  1.402E+00
   1    4    5     2     1    2.4687E+01  3.2711E-01   2.4360E+01  0.000E+00  0.000E+00  0.000E+00  1.07313E+03  1.194E+00  1.200E+01  7.800E-02  1.398E+00
   1    5    6     2     2    2.4360E+01  2.5111E-01   2.4109E+01  0.000E+00  0.000E+00  0.000E+00  1.06769E+03  1.185E+00  1.200E+01  6.000E-02  1.395E+00
   1    6    6     2     3    2.4109E+01  2.5067E-01   2.3858E+01  0.000E+00  0.000E+00  0.000E+00  1.06297E+03  1.178E+00  1.200E+01  6.000E-02  1.393E+00
   1    7    6     2     4    2.3858E+01  2.5023E-01   2.3608E+01  0.000E+00  0.000E+00  0.000E+00  1.05825E+03  1.170E+00  1.200E+01  6.000E-02  1.390E+00
   1    8    6     2     5    2.3608E+01  2.4978E-01   2.3358E+01  0.000E+00  0.000E+00  0.000E+00  1.05352E+03  1.163E+00  1.200E+01  6.000E-02  1.388E+00
   1    3    5     3     1    2.0000E+00  2.8252E-01   1.7175E+00  0.000E+00  0.000E+00  0.000E+00  1.07555E+03  1.909E+00  9.636E+00  7.227E-02  1.955E+00
   1    3    6     3     2    1.7175E+00  2.4905E-01   1.4684E+00  0.000E+00  0.000E+00  0.000E+00  1.07264E+03  1.727E+00  8.909E+00  6.682E-02  1.864E+00
   1    3    7     3     3    1.4684E+00  1.9718E-01   1.2712E+00  0.000E+00  0.000E+00  0.000E+00  1.06987E+03  1.555E+00  8.218E+00  5.547E-02  1.777E+00
   1    4    8     3     4    1.2712E+00  2.2567E-01   1.0456E+00  0.000E+00  0.000E+00  0.000E+00  1.06682E+03  1.364E+00  7.455E+00  6.709E-02  1.682E+00
   1    5    8     3     5    1.0456E+00  1.5790E-01   8.8768E-01  0.000E+00  0.000E+00  0.000E+00  1.06362E+03  1.164E+00  6.655E+00  4.991E-02  1.582E+00
   1    6    8     3     6    8.8768E-01  5.5980E-02   8.3170E-01  0.000E+00  0.000E+00  0.000E+00  1.06158E+03  1.036E+00  6.145E+00  1.844E-02  1.518E+00
   1    5   10     4     1    1.0000E+01  9.0919E-02   9.9091E+00  0.000E+00  0.000E+00  0.000E+00  1.07836E+03  6.368E-01  1.000E+01  2.500E-02  1.212E+00
   1    5    9     4     2    9.9091E+00  1.8158E-01   9.7275E+00  0.000E+00  0.000E+00  0.000E+00  1.07154E+03  6.315E-01  1.000E+01  5.000E-02  1.211E+00
   1    6    8     4     3    9.7275E+00  1.2689E-01   9.6006E+00  0.000E+00  0.000E+00  0.000E+00  1.06381E+03  6.256E-01  1.000E+01  3.500E-02  1.209E+00
   1    6    8     5     1    1.0432E+01  2.2686E-01   1.0205E+01  0.000E+00  0.000E+00  0.000E+00  1.05868E+03  6.790E-01  1.542E+01  6.166E-02  1.226E+00
   1    7    7     5     2    1.0205E+01  2.7894E-01   9.9265E+00  0.000E+00  0.000E+00  0.000E+00  1.05417E+03  6.732E-01  1.519E+01  7.594E-02  1.224E+00
   1    8    7     5     3    9.9265E+00  1.9221E-01   9.7343E+00  0.000E+00  0.000E+00  0.000E+00  1.04992E+03  6.676E-01  1.497E+01  5.241E-02  1.223E+00
   1    8    6     5     4    9.7343E+00  1.3577E-01   9.5985E+00  0.000E+00  0.000E+00  0.000E+00  1.04691E+03  6.637E-01  1.482E+01  3.706E-02  1.221E+00
   1    9    6     6     1    3.2957E+01  2.6627E-01   3.2691E+01  0.000E+00  0.000E+00  0.000E+00  1.04417E+03  1.438E+00  1.200E+01  6.000E-02  1.479E+00
   1   10    7     6     2    3.2691E+01  2.6584E-01   3.2425E+01  0.000E+00  0.000E+00  0.000E+00  1.03961E+03  1.431E+00  1.200E+01  6.000E-02  1.477E+00
   1   11    7     6     3    3.2425E+01  2.6542E-01   3.2159E+01  0.000E+00  0.000E+00  0.000E+00  1.03506E+03  1.424E+00  1.200E+01  6.000E-02  1.475E+00
   1   12    7     6     4    3.2159E+01  2.6500E-01   3.1894E+01  0.000E+00  0.000E+00  0.000E+00  1.03051E+03  1.417E+00  1.200E+01  6.000E-02  1.472E+00
   1   13    7     6     5    3.1894E+01  3.4993E-03   3.1891E+01  0.000E+00  0.000E+00  0.000E+00  1.02732E+03  1.413E+00  1.200E+01  2.400E-02  4.860E-02
   1   14    9     7     1    1.5000E+02  1.3316E+00   1.4867E+02  0.000E+00  0.000E+00  0.000E+00  1.03987E+03  2.288E+00  5.529E+01  5.593E-01  7.936E-01
   1   13    8     7     2    1.4867E+02  1.8145E+00   1.4685E+02  0.000E+00  0.000E+00  0.000E+00  1.03478E+03  2.279E+00  5.526E+01  6.148E-01  9.838E-01
   1   13    7     7     3    1.4685E+02  1.4038E+00   1.4545E+02  0.000E+00  0.000E+00  0.000E+00  1.02969E+03  2.271E+00  5.522E+01  5.585E-01  8.379E-01
   1   13    6     8     1    1.7734E+02  8.5616E-01   1.7648E+02  0.000E+00  0.000E+00  0.000E+00  1.02487E+03  2.997E+00  4.345E+01  4.428E-01  6.445E-01
   1   13    5     8     2    1.7648E+02  9.2005E-02   1.7639E+02  0.000E+00  0.000E+00  0.000E+00  1.01862E+03  2.994E+00  4.341E+01  4.423E-01  6.933E-02
   1   13    4     8     3    1.7639E+02 -3.2421E+00   1.7963E+02  0.000E+00  0.000E+00  0.000E+00  1.01238E+03  3.004E+00  4.355E+01  4.438E+00 -2.435E-01
   1   13    3     8     4    1.7963E+02 -4.3427E+00   1.8398E+02  0.000E+00  0.000E+00  0.000E+00  1.00615E+03  3.027E+00  4.390E+01  4.473E+00 -3.236E-01
   1   13    2     8     5    1.8398E+02 -3.2978E+00   1.8728E+02  0.000E+00  0.000E+00  0.000E+00  9.99926E+02  3.051E+00  4.424E+01  4.508E+00 -2.438E-01
   1   13    1     8     6    1.8728E+02 -2.3653E+00   1.8964E+02  0.000E+00  0.000E+00  0.000E+00  9.94944E+02  3.069E+00  4.449E+01  2.720E+00 -2.898E-01



 UBDSV3 SAVING "           GW ET" ON UNIT  61 AT TIME STEP  2, STRESS PERIOD   5
 UBDSV3 SAVING "    UZF RECHARGE" ON UNIT  61 AT TIME STEP  2, STRESS PERIOD   5
 UBDSV3 SAVING " SURFACE LEAKAGE" ON UNIT  61 AT TIME STEP  2, STRESS PERIOD   5
 UBDSV3 SAVING "       HORT+DUNN" ON UNIT  61 AT TIME STEP  2, STRESS PERIOD   5
 UBDSV3 SAVING "  STORAGE CHANGE" ON UNIT  61 AT TIME STEP  2, STRESS PERIOD   5


UNSATURATED ZONE PACKAGE VOLUMETRIC BUDGET FOR  TIME STEP     2 STRESS PERIOD    5
  ------------------------------------------------------------------------------



     CUMULATIVE VOLUMES      L**3       RATES FOR THIS TIME STEP      L**3/T
     ------------------                 ------------------------

           IN:                                      IN:
           ---                                      ---
        INFILTRATION =     7560925.7819          INFILTRATION =           4.5675

          OUT:                                     OUT:
          ----                                     ----
              UZF ET =     7487024.6105                UZF ET =           5.5360
        UZF RECHARGE =       73224.0000          UZF RECHARGE =       0.0000E+00

            IN - OUT =         677.1713              IN - OUT =          -0.9685

          STORAGE:                                 STORAGE:
          --------                                 --------
      STORAGE CHANGE =         677.2369        STORAGE CHANGE =          -0.9685

 PERCENT DISCREPANCY IS DIFFERENCE BETWEEN IN-OUT MINUS CHANGE IN STORAGE
 DIVIDED BY THE AVERAGE OF IN AND OUT TIMES 100

 PERCENT DISCREPANCY =           0.00     PERCENT DISCREPANCY =           0.00






 

            AG WELLS      PERIOD    5   STEP   2
 AG WELL      1   LAYER   1   ROW     6   COL     4   RATE   -0.620000    
 AG WELL      2   LAYER   1   ROW     6   COL     5   RATE   -0.620000    
 AG WELL      3   LAYER   1   ROW     7   COL     4   RATE   -0.620000    
 AG WELL      4   LAYER   1   ROW     7   COL     5   RATE   -0.620000    
 AG WELL      5   LAYER   1   ROW     8   COL     4   RATE   -0.620000    
 AG WELL      6   LAYER   1   ROW     8   COL     5   RATE   -0.620000    
 
 

        GW IRRIGATION     PERIOD    5   STEP   2
 AG WELL      1   ROW     6   COL     4   RATE    0.620000    
 AG WELL      2   ROW     6   COL     5   RATE    0.620000    
 AG WELL      3   ROW     7   COL     4   RATE    0.620000    
 AG WELL      4   ROW     7   COL     5   RATE    0.620000    
 AG WELL      5   ROW     8   COL     4   RATE    0.620000    
 AG WELL      6   ROW     8   COL     5   RATE    0.620000    
 
1
  VOLUMETRIC BUDGET FOR AGRICULTURAL FIELDS AT  END OF TIME STEP    2, STRESS PERIOD   5
  ------------------------------------------------------------------------------

     CUMULATIVE VOLUMES      L**3       RATES FOR THIS TIME STEP      L**3/T
     ------------------                 ------------------------

           IN:                                      IN:
           ---                                      ---
               AG WELLS  =      652332.1875                 AG WELLS  =           3.7200
      DIVERSION SEGMENTS =           0.0000        DIVERSION SEGMENTS =           0.0000
           GW IRRIGATION =           0.0000             GW IRRIGATION =           0.0000
           SW IRRIGATION =           0.0000             SW IRRIGATION =           0.0000
        SYSTEM LOSSES GW =           0.0000          SYSTEM LOSSES GW =           0.0000
        SYSTEM LOSSES SW =           0.0000          SYSTEM LOSSES SW =           0.0000

                TOTAL IN =      652332.1875                  TOTAL IN =           3.7200

          OUT:                                     OUT:
          ----                                     ----
               AG WELLS  =           0.0000                 AG WELLS  =           0.0000
      DIVERSION SEGMENTS =           0.0000        DIVERSION SEGMENTS =           0.0000
           GW IRRIGATION =      652332.1875             GW IRRIGATION =           3.7200
           SW IRRIGATION =           0.0000             SW IRRIGATION =           0.0000
        SYSTEM LOSSES GW =           0.0000          SYSTEM LOSSES GW =           0.0000
        SYSTEM LOSSES SW =           0.0000          SYSTEM LOSSES SW =           0.0000

               TOTAL OUT =      652332.1875                 TOTAL OUT =           3.7200

                IN - OUT =           0.0000                  IN - OUT =           0.0000

     PERCENT DISCREPANCY =           0.00         PERCENT DISCREPANCY =           0.00



1
  VOLUMETRIC BUDGET FOR ENTIRE MODEL AT END OF TIME STEP    2, STRESS PERIOD   5
  ------------------------------------------------------------------------------

     CUMULATIVE VOLUMES      L**3       RATES FOR THIS TIME STEP      L**3/T
     ------------------                 ------------------------

           IN:                                      IN:
           ---                                      ---
             STORAGE     =     5542502.5000               STORAGE     =           7.1038
       CONSTANT HEAD     =           0.0000         CONSTANT HEAD     =           0.0000
     HEAD DEP BOUNDS     =     2326674.0000       HEAD DEP BOUNDS     =           0.2855
      STREAM LEAKAGE     =   101009216.0000        STREAM LEAKAGE     =          11.6071
        UZF RECHARGE     =       73223.9531          UZF RECHARGE     =           0.0000
               GW ET     =           0.0000                 GW ET     =           0.0000
     SURFACE LEAKAGE     =           0.0000       SURFACE LEAKAGE     =           0.0000
           AG WELLS      =           0.0000             AG WELLS      =           0.0000

                TOTAL IN =   108951616.0000                  TOTAL IN =          18.9964

          OUT:                                     OUT:
          ----                                     ----
             STORAGE     =    22628574.0000               STORAGE     =           1.4433
       CONSTANT HEAD     =           0.0000         CONSTANT HEAD     =           0.0000
     HEAD DEP BOUNDS     =     2379787.0000       HEAD DEP BOUNDS     =           0.2969
      STREAM LEAKAGE     =    83232472.0000        STREAM LEAKAGE     =          13.2480
        UZF RECHARGE     =           0.0000          UZF RECHARGE     =           0.0000
               GW ET     =       63605.7500                 GW ET     =           0.2882
     SURFACE LEAKAGE     =           0.0000       SURFACE LEAKAGE     =           0.0000
           AG WELLS      =      652332.1875             AG WELLS      =           3.7200

               TOTAL OUT =   108956776.0000                 TOTAL OUT =          18.9964

                IN - OUT =       -5160.0000                  IN - OUT =      -1.5259E-05

     PERCENT DISCREPANCY =          -0.00         PERCENT DISCREPANCY =          -0.00






         TIME SUMMARY AT END OF TIME STEP    2 IN STRESS PERIOD    5
                    SECONDS     MINUTES      HOURS       DAYS        YEARS
                    -----------------------------------------------------------
   TIME STEP LENGTH  87667.      1461.1      24.352      1.0147     2.77799E-03
 STRESS PERIOD TIME 1.75333E+05  2922.2      48.704      2.0293     5.55598E-03
         TOTAL TIME 8.15173E+06 1.35862E+05  2264.4      94.349     0.25831    
1
 
 SOLVING FOR HEAD 
                                                   Max.-Head-Change                         Max.-Flux-Residual
  Residual-Control   Outer-Iter.   Inner-Iter.     Column Row Layer    Maximum-Head-Change  Column Row Layer    Maximum-Flux-Residual          L2-NORM 
          0                 1           2             4   13     1      -0.1482687637E-01       4   13    1        -0.8683452140E+00      0.2072523911E+01
          0                 2           2             4   13     1       0.1430201418E-02       4   13    1         0.8612012047E-01      0.2046077099E+00
          0                 3           1             4   13     1      -0.9625734516E-04       4   13    1        -0.5959317681E-02      0.1407767029E-01

    ------------------------------------------------
       NWT REQUIRED            3 OUTER ITERATIONS 
       AND A TOTAL OF          5 INNER ITERATIONS.
    ------------------------------------------------

 OUTPUT CONTROL FOR STRESS PERIOD    5   TIME STEP    3
    PRINT BUDGET
    SAVE BUDGET
 UBDSV1 SAVING "         STORAGE" ON UNIT 102 AT TIME STEP  3, STRESS PERIOD   5
 UBDSV2 SAVING "   CONSTANT HEAD" ON UNIT 102 AT TIME STEP  3, STRESS PERIOD   5
 UBDSV1 SAVING "FLOW RIGHT FACE " ON UNIT 102 AT TIME STEP  3, STRESS PERIOD   5
 UBDSV1 SAVING "FLOW FRONT FACE " ON UNIT 102 AT TIME STEP  3, STRESS PERIOD   5

  HEAD DEP BOUNDS   PERIOD    5   STEP     3
 BOUNDARY      1   LAYER   1   ROW    13   COL     1   RATE   -0.296639    
 BOUNDARY      2   LAYER   1   ROW    14   COL     9   RATE    0.285472    



 STREAM LISTING     PERIOD      5   STEP        3

 LAYER ROW COL. STREAM  RCH.  FLOW INTO     FLOW TO   FLOW OUT OF   OVRLND.     DIRECT     STREAM       STREAM     STREAM     STREAM   STREAMBED  STREAMBED
                SEG.NO.  NO.  STRM. RCH.    AQUIFER    STRM. RCH.    RUNOFF     PRECIP       ET          HEAD       DEPTH      WIDTH   CONDCTNC.   GRADIENT

   1    1    1     1     1    2.8000E+01  2.5860E-01   2.7741E+01  0.000E+00  0.000E+00  0.000E+00  1.09427E+03  1.221E+00  1.361E+01  6.126E-02  1.407E+00
   1    2    2     1     2    2.7741E+01  4.0002E-01   2.7341E+01  0.000E+00  0.000E+00  0.000E+00  1.08928E+03  1.217E+00  1.355E+01  9.487E-02  1.406E+00
   1    3    3     1     3    2.7341E+01  3.4070E-01   2.7001E+01  0.000E+00  0.000E+00  0.000E+00  1.08363E+03  1.212E+00  1.348E+01  8.090E-02  1.404E+00
   1    3    4     1     4    2.7001E+01  3.1335E-01   2.6687E+01  0.000E+00  0.000E+00  0.000E+00  1.07861E+03  1.207E+00  1.342E+01  7.448E-02  1.402E+00
   1    4    5     2     1    2.4687E+01  3.2711E-01   2.4360E+01  0.000E+00  0.000E+00  0.000E+00  1.07313E+03  1.194E+00  1.200E+01  7.800E-02  1.398E+00
   1    5    6     2     2    2.4360E+01  2.5111E-01   2.4109E+01  0.000E+00  0.000E+00  0.000E+00  1.06769E+03  1.185E+00  1.200E+01  6.000E-02  1.395E+00
   1    6    6     2     3    2.4109E+01  2.5067E-01   2.3858E+01  0.000E+00  0.000E+00  0.000E+00  1.06297E+03  1.178E+00  1.200E+01  6.000E-02  1.393E+00
   1    7    6     2     4    2.3858E+01  2.5023E-01   2.3608E+01  0.000E+00  0.000E+00  0.000E+00  1.05825E+03  1.170E+00  1.200E+01  6.000E-02  1.390E+00
   1    8    6     2     5    2.3608E+01  2.4978E-01   2.3358E+01  0.000E+00  0.000E+00  0.000E+00  1.05352E+03  1.163E+00  1.200E+01  6.000E-02  1.388E+00
   1    3    5     3     1    2.0000E+00  2.8252E-01   1.7175E+00  0.000E+00  0.000E+00  0.000E+00  1.07555E+03  1.909E+00  9.636E+00  7.227E-02  1.955E+00
   1    3    6     3     2    1.7175E+00  2.4905E-01   1.4684E+00  0.000E+00  0.000E+00  0.000E+00  1.07264E+03  1.727E+00  8.909E+00  6.682E-02  1.864E+00
   1    3    7     3     3    1.4684E+00  1.9718E-01   1.2712E+00  0.000E+00  0.000E+00  0.000E+00  1.06987E+03  1.555E+00  8.218E+00  5.547E-02  1.777E+00
   1    4    8     3     4    1.2712E+00  2.2567E-01   1.0456E+00  0.000E+00  0.000E+00  0.000E+00  1.06682E+03  1.364E+00  7.455E+00  6.709E-02  1.682E+00
   1    5    8     3     5    1.0456E+00  1.5790E-01   8.8768E-01  0.000E+00  0.000E+00  0.000E+00  1.06362E+03  1.164E+00  6.655E+00  4.991E-02  1.582E+00
   1    6    8     3     6    8.8768E-01  5.5980E-02   8.3170E-01  0.000E+00  0.000E+00  0.000E+00  1.06158E+03  1.036E+00  6.145E+00  1.844E-02  1.518E+00
   1    5   10     4     1    1.0000E+01  9.0919E-02   9.9091E+00  0.000E+00  0.000E+00  0.000E+00  1.07836E+03  6.368E-01  1.000E+01  2.500E-02  1.212E+00
   1    5    9     4     2    9.9091E+00  1.8158E-01   9.7275E+00  0.000E+00  0.000E+00  0.000E+00  1.07154E+03  6.315E-01  1.000E+01  5.000E-02  1.211E+00
   1    6    8     4     3    9.7275E+00  1.2689E-01   9.6006E+00  0.000E+00  0.000E+00  0.000E+00  1.06381E+03  6.256E-01  1.000E+01  3.500E-02  1.209E+00
   1    6    8     5     1    1.0432E+01  2.2686E-01   1.0205E+01  0.000E+00  0.000E+00  0.000E+00  1.05868E+03  6.790E-01  1.542E+01  6.166E-02  1.226E+00
   1    7    7     5     2    1.0205E+01  2.7894E-01   9.9265E+00  0.000E+00  0.000E+00  0.000E+00  1.05417E+03  6.732E-01  1.519E+01  7.594E-02  1.224E+00
   1    8    7     5     3    9.9265E+00  1.9221E-01   9.7343E+00  0.000E+00  0.000E+00  0.000E+00  1.04992E+03  6.676E-01  1.497E+01  5.241E-02  1.223E+00
   1    8    6     5     4    9.7343E+00  1.3577E-01   9.5985E+00  0.000E+00  0.000E+00  0.000E+00  1.04691E+03  6.637E-01  1.482E+01  3.706E-02  1.221E+00
   1    9    6     6     1    3.2957E+01  2.6627E-01   3.2691E+01  0.000E+00  0.000E+00  0.000E+00  1.04417E+03  1.438E+00  1.200E+01  6.000E-02  1.479E+00
   1   10    7     6     2    3.2691E+01  2.6584E-01   3.2425E+01  0.000E+00  0.000E+00  0.000E+00  1.03961E+03  1.431E+00  1.200E+01  6.000E-02  1.477E+00
   1   11    7     6     3    3.2425E+01  2.6542E-01   3.2159E+01  0.000E+00  0.000E+00  0.000E+00  1.03506E+03  1.424E+00  1.200E+01  6.000E-02  1.475E+00
   1   12    7     6     4    3.2159E+01  2.6500E-01   3.1894E+01  0.000E+00  0.000E+00  0.000E+00  1.03051E+03  1.417E+00  1.200E+01  6.000E-02  1.472E+00
   1   13    7     6     5    3.1894E+01  3.4885E-03   3.1891E+01  0.000E+00  0.000E+00  0.000E+00  1.02732E+03  1.413E+00  1.200E+01  2.400E-02  4.845E-02
   1   14    9     7     1    1.5000E+02  1.3316E+00   1.4867E+02  0.000E+00  0.000E+00  0.000E+00  1.03987E+03  2.288E+00  5.529E+01  5.593E-01  7.936E-01
   1   13    8     7     2    1.4867E+02  1.8143E+00   1.4685E+02  0.000E+00  0.000E+00  0.000E+00  1.03478E+03  2.279E+00  5.526E+01  6.148E-01  9.837E-01
   1   13    7     7     3    1.4685E+02  1.4036E+00   1.4545E+02  0.000E+00  0.000E+00  0.000E+00  1.02969E+03  2.271E+00  5.522E+01  5.585E-01  8.378E-01
   1   13    6     8     1    1.7734E+02  8.5687E-01   1.7648E+02  0.000E+00  0.000E+00  0.000E+00  1.02487E+03  2.997E+00  4.345E+01  4.428E-01  6.451E-01
   1   13    5     8     2    1.7648E+02  9.2469E-02   1.7639E+02  0.000E+00  0.000E+00  0.000E+00  1.01862E+03  2.994E+00  4.341E+01  4.423E-01  6.968E-02
   1   13    4     8     3    1.7639E+02 -3.1829E+00   1.7957E+02  0.000E+00  0.000E+00  0.000E+00  1.01238E+03  3.003E+00  4.355E+01  4.438E+00 -2.391E-01
   1   13    3     8     4    1.7957E+02 -4.2868E+00   1.8386E+02  0.000E+00  0.000E+00  0.000E+00  1.00615E+03  3.027E+00  4.389E+01  4.473E+00 -3.195E-01
   1   13    2     8     5    1.8386E+02 -3.2456E+00   1.8711E+02  0.000E+00  0.000E+00  0.000E+00  9.99925E+02  3.050E+00  4.423E+01  4.507E+00 -2.400E-01
   1   13    1     8     6    1.8711E+02 -2.3492E+00   1.8946E+02  0.000E+00  0.000E+00  0.000E+00  9.94943E+02  3.067E+00  4.448E+01  2.720E+00 -2.879E-01



 UBDSV3 SAVING "           GW ET" ON UNIT  61 AT TIME STEP  3, STRESS PERIOD   5
 UBDSV3 SAVING "    UZF RECHARGE" ON UNIT  61 AT TIME STEP  3, STRESS PERIOD   5
 UBDSV3 SAVING " SURFACE LEAKAGE" ON UNIT  61 AT TIME STEP  3, STRESS PERIOD   5
 UBDSV3 SAVING "       HORT+DUNN" ON UNIT  61 AT TIME STEP  3, STRESS PERIOD   5
 UBDSV3 SAVING "  STORAGE CHANGE" ON UNIT  61 AT TIME STEP  3, STRESS PERIOD   5


UNSATURATED ZONE PACKAGE VOLUMETRIC BUDGET FOR  TIME STEP     3 STRESS PERIOD    5
  ------------------------------------------------------------------------------



     CUMULATIVE VOLUMES      L**3       RATES FOR THIS TIME STEP      L**3/T
     ------------------                 ------------------------

           IN:                                      IN:
           ---                                      ---
        INFILTRATION =     7961343.2621          INFILTRATION =           4.5675

          OUT:                                     OUT:
          ----                                     ----
              UZF ET =     7887442.0908                UZF ET =           4.5675
        UZF RECHARGE =       73224.0000          UZF RECHARGE =       0.0000E+00

            IN - OUT =         677.1713              IN - OUT =       0.0000E+00

          STORAGE:                                 STORAGE:
          --------                                 --------
      STORAGE CHANGE =         677.2369        STORAGE CHANGE =       4.4761E-12

 PERCENT DISCREPANCY IS DIFFERENCE BETWEEN IN-OUT MINUS CHANGE IN STORAGE
 DIVIDED BY THE AVERAGE OF IN AND OUT TIMES 100

 PERCENT DISCREPANCY =           0.00     PERCENT DISCREPANCY =           0.00






 

            AG WELLS      PERIOD    5   STEP   3
 AG WELL      1   LAYER   1   ROW     6   COL     4   RATE   -0.620000    
 AG WELL      2   LAYER   1   ROW     6   COL     5   RATE   -0.620000    
 AG WELL      3   LAYER   1   ROW     7   COL     4   RATE   -0.620000    
 AG WELL      4   LAYER   1   ROW     7   COL     5   RATE   -0.620000    
 AG WELL      5   LAYER   1   ROW     8   COL     4   RATE   -0.620000    
 AG WELL      6   LAYER   1   ROW     8   COL     5   RATE   -0.620000    
 
 

        GW IRRIGATION     PERIOD    5   STEP   3
 AG WELL      1   ROW     6   COL     4   RATE    0.620000    
 AG WELL      2   ROW     6   COL     5   RATE    0.620000    
 AG WELL      3   ROW     7   COL     4   RATE    0.620000    
 AG WELL      4   ROW     7   COL     5   RATE    0.620000    
 AG WELL      5   ROW     8   COL     4   RATE    0.620000    
 AG WELL      6   ROW     8   COL     5   RATE    0.620000    
 
1
  VOLUMETRIC BUDGET FOR AGRICULTURAL FIELDS AT  END OF TIME STEP    3, STRESS PERIOD   5
  ------------------------------------------------------------------------------

     CUMULATIVE VOLUMES      L**3       RATES FOR THIS TIME STEP      L**3/T
     ------------------                 ------------------------

           IN:                                      IN:
           ---                                      ---
               AG WELLS  =      978452.1875                 AG WELLS  =           3.7200
      DIVERSION SEGMENTS =           0.0000        DIVERSION SEGMENTS =           0.0000
           GW IRRIGATION =           0.0000             GW IRRIGATION =           0.0000
           SW IRRIGATION =           0.0000             SW IRRIGATION =           0.0000
        SYSTEM LOSSES GW =           0.0000          SYSTEM LOSSES GW =           0.0000
        SYSTEM LOSSES SW =           0.0000          SYSTEM LOSSES SW =           0.0000

                TOTAL IN =      978452.1875                  TOTAL IN =           3.7200

          OUT:                                     OUT:
          ----                                     ----
               AG WELLS  =           0.0000                 AG WELLS  =           0.0000
      DIVERSION SEGMENTS =           0.0000        DIVERSION SEGMENTS =           0.0000
           GW IRRIGATION =      978452.1875             GW IRRIGATION =           3.7200
           SW IRRIGATION =           0.0000             SW IRRIGATION =           0.0000
        SYSTEM LOSSES GW =           0.0000          SYSTEM LOSSES GW =           0.0000
        SYSTEM LOSSES SW =           0.0000          SYSTEM LOSSES SW =           0.0000

               TOTAL OUT =      978452.1875                 TOTAL OUT =           3.7200

                IN - OUT =           0.0000                  IN - OUT =           0.0000

     PERCENT DISCREPANCY =           0.00         PERCENT DISCREPANCY =           0.00



1
  VOLUMETRIC BUDGET FOR ENTIRE MODEL AT END OF TIME STEP    3, STRESS PERIOD   5
  ------------------------------------------------------------------------------

     CUMULATIVE VOLUMES      L**3       RATES FOR THIS TIME STEP      L**3/T
     ------------------                 ------------------------

           IN:                                      IN:
           ---                                      ---
             STORAGE     =     6141244.0000               STORAGE     =           6.8297
       CONSTANT HEAD     =           0.0000         CONSTANT HEAD     =           0.0000
     HEAD DEP BOUNDS     =     2351700.5000       HEAD DEP BOUNDS     =           0.2855
      STREAM LEAKAGE     =   102026840.0000        STREAM LEAKAGE     =          11.6079
        UZF RECHARGE     =       73223.9531          UZF RECHARGE     =           0.0000
               GW ET     =           0.0000                 GW ET     =           0.0000
     SURFACE LEAKAGE     =           0.0000       SURFACE LEAKAGE     =           0.0000
           AG WELLS      =           0.0000             AG WELLS      =           0.0000

                TOTAL IN =   110593008.0000                  TOTAL IN =          18.7231

          OUT:                                     OUT:
          ----                                     ----
             STORAGE     =    22749990.0000               STORAGE     =           1.3850
       CONSTANT HEAD     =           0.0000         CONSTANT HEAD     =           0.0000
     HEAD DEP BOUNDS     =     2405792.5000       HEAD DEP BOUNDS     =           0.2966
      STREAM LEAKAGE     =    84377792.0000        STREAM LEAKAGE     =          13.0645
        UZF RECHARGE     =           0.0000          UZF RECHARGE     =           0.0000
               GW ET     =       86004.6016                 GW ET     =           0.2555
     SURFACE LEAKAGE     =           0.0000       SURFACE LEAKAGE     =           0.0000
           AG WELLS      =      978452.1875             AG WELLS      =           3.7200

               TOTAL OUT =   110598040.0000                 TOTAL OUT =          18.7216

                IN - OUT =       -5032.0000                  IN - OUT =       1.5697E-03

     PERCENT DISCREPANCY =          -0.00         PERCENT DISCREPANCY =           0.01






         TIME SUMMARY AT END OF TIME STEP    3 IN STRESS PERIOD    5
                    SECONDS     MINUTES      HOURS       DAYS        YEARS
                    -----------------------------------------------------------
   TIME STEP LENGTH  87667.      1461.1      24.352      1.0147     2.77799E-03
 STRESS PERIOD TIME 2.63000E+05  4383.3      73.056      3.0440     8.33397E-03
         TOTAL TIME 8.23939E+06 1.37323E+05  2288.7      95.363     0.26109    
1
 
 SOLVING FOR HEAD 
                                                   Max.-Head-Change                         Max.-Flux-Residual
  Residual-Control   Outer-Iter.   Inner-Iter.     Column Row Layer    Maximum-Head-Change  Column Row Layer    Maximum-Flux-Residual          L2-NORM 
          0                 1           2             4   13     1      -0.1316215646E-01       4   13    1        -0.7705241801E+00      0.1959661350E+01
          0                 2           2             4   13     1       0.1269520993E-02       4   13    1         0.7641229856E-01      0.1936412518E+00
          0                 3           1             4   13     1      -0.8544564812E-04       4   13    1        -0.5287716868E-02      0.1334029185E-01

    ------------------------------------------------
       NWT REQUIRED            3 OUTER ITERATIONS 
       AND A TOTAL OF          5 INNER ITERATIONS.
    ------------------------------------------------

 OUTPUT CONTROL FOR STRESS PERIOD    5   TIME STEP    4
    PRINT BUDGET
    SAVE BUDGET
 UBDSV1 SAVING "         STORAGE" ON UNIT 102 AT TIME STEP  4, STRESS PERIOD   5
 UBDSV2 SAVING "   CONSTANT HEAD" ON UNIT 102 AT TIME STEP  4, STRESS PERIOD   5
 UBDSV1 SAVING "FLOW RIGHT FACE " ON UNIT 102 AT TIME STEP  4, STRESS PERIOD   5
 UBDSV1 SAVING "FLOW FRONT FACE " ON UNIT 102 AT TIME STEP  4, STRESS PERIOD   5

  HEAD DEP BOUNDS   PERIOD    5   STEP     4
 BOUNDARY      1   LAYER   1   ROW    13   COL     1   RATE   -0.296394    
 BOUNDARY      2   LAYER   1   ROW    14   COL     9   RATE    0.285473    



 STREAM LISTING     PERIOD      5   STEP        4

 LAYER ROW COL. STREAM  RCH.  FLOW INTO     FLOW TO   FLOW OUT OF   OVRLND.     DIRECT     STREAM       STREAM     STREAM     STREAM   STREAMBED  STREAMBED
                SEG.NO.  NO.  STRM. RCH.    AQUIFER    STRM. RCH.    RUNOFF     PRECIP       ET          HEAD       DEPTH      WIDTH   CONDCTNC.   GRADIENT

   1    1    1     1     1    2.8000E+01  2.5860E-01   2.7741E+01  0.000E+00  0.000E+00  0.000E+00  1.09427E+03  1.221E+00  1.361E+01  6.126E-02  1.407E+00
   1    2    2     1     2    2.7741E+01  4.0002E-01   2.7341E+01  0.000E+00  0.000E+00  0.000E+00  1.08928E+03  1.217E+00  1.355E+01  9.487E-02  1.406E+00
   1    3    3     1     3    2.7341E+01  3.4070E-01   2.7001E+01  0.000E+00  0.000E+00  0.000E+00  1.08363E+03  1.212E+00  1.348E+01  8.090E-02  1.404E+00
   1    3    4     1     4    2.7001E+01  3.1335E-01   2.6687E+01  0.000E+00  0.000E+00  0.000E+00  1.07861E+03  1.207E+00  1.342E+01  7.448E-02  1.402E+00
   1    4    5     2     1    2.4687E+01  3.2711E-01   2.4360E+01  0.000E+00  0.000E+00  0.000E+00  1.07313E+03  1.194E+00  1.200E+01  7.800E-02  1.398E+00
   1    5    6     2     2    2.4360E+01  2.5111E-01   2.4109E+01  0.000E+00  0.000E+00  0.000E+00  1.06769E+03  1.185E+00  1.200E+01  6.000E-02  1.395E+00
   1    6    6     2     3    2.4109E+01  2.5067E-01   2.3858E+01  0.000E+00  0.000E+00  0.000E+00  1.06297E+03  1.178E+00  1.200E+01  6.000E-02  1.393E+00
   1    7    6     2     4    2.3858E+01  2.5023E-01   2.3608E+01  0.000E+00  0.000E+00  0.000E+00  1.05825E+03  1.170E+00  1.200E+01  6.000E-02  1.390E+00
   1    8    6     2     5    2.3608E+01  2.4978E-01   2.3358E+01  0.000E+00  0.000E+00  0.000E+00  1.05352E+03  1.163E+00  1.200E+01  6.000E-02  1.388E+00
   1    3    5     3     1    2.0000E+00  2.8252E-01   1.7175E+00  0.000E+00  0.000E+00  0.000E+00  1.07555E+03  1.909E+00  9.636E+00  7.227E-02  1.955E+00
   1    3    6     3     2    1.7175E+00  2.4905E-01   1.4684E+00  0.000E+00  0.000E+00  0.000E+00  1.07264E+03  1.727E+00  8.909E+00  6.682E-02  1.864E+00
   1    3    7     3     3    1.4684E+00  1.9718E-01   1.2712E+00  0.000E+00  0.000E+00  0.000E+00  1.06987E+03  1.555E+00  8.218E+00  5.547E-02  1.777E+00
   1    4    8     3     4    1.2712E+00  2.2567E-01   1.0456E+00  0.000E+00  0.000E+00  0.000E+00  1.06682E+03  1.364E+00  7.455E+00  6.709E-02  1.682E+00
   1    5    8     3     5    1.0456E+00  1.5790E-01   8.8768E-01  0.000E+00  0.000E+00  0.000E+00  1.06362E+03  1.164E+00  6.655E+00  4.991E-02  1.582E+00
   1    6    8     3     6    8.8768E-01  5.5980E-02   8.3170E-01  0.000E+00  0.000E+00  0.000E+00  1.06158E+03  1.036E+00  6.145E+00  1.844E-02  1.518E+00
   1    5   10     4     1    1.0000E+01  9.0919E-02   9.9091E+00  0.000E+00  0.000E+00  0.000E+00  1.07836E+03  6.368E-01  1.000E+01  2.500E-02  1.212E+00
   1    5    9     4     2    9.9091E+00  1.8158E-01   9.7275E+00  0.000E+00  0.000E+00  0.000E+00  1.07154E+03  6.315E-01  1.000E+01  5.000E-02  1.211E+00
   1    6    8     4     3    9.7275E+00  1.2689E-01   9.6006E+00  0.000E+00  0.000E+00  0.000E+00  1.06381E+03  6.256E-01  1.000E+01  3.500E-02  1.209E+00
   1    6    8     5     1    1.0432E+01  2.2686E-01   1.0205E+01  0.000E+00  0.000E+00  0.000E+00  1.05868E+03  6.790E-01  1.542E+01  6.166E-02  1.226E+00
   1    7    7     5     2    1.0205E+01  2.7894E-01   9.9265E+00  0.000E+00  0.000E+00  0.000E+00  1.05417E+03  6.732E-01  1.519E+01  7.594E-02  1.224E+00
   1    8    7     5     3    9.9265E+00  1.9221E-01   9.7343E+00  0.000E+00  0.000E+00  0.000E+00  1.04992E+03  6.676E-01  1.497E+01  5.241E-02  1.223E+00
   1    8    6     5     4    9.7343E+00  1.3577E-01   9.5985E+00  0.000E+00  0.000E+00  0.000E+00  1.04691E+03  6.637E-01  1.482E+01  3.706E-02  1.221E+00
   1    9    6     6     1    3.2957E+01  2.6627E-01   3.2691E+01  0.000E+00  0.000E+00  0.000E+00  1.04417E+03  1.438E+00  1.200E+01  6.000E-02  1.479E+00
   1   10    7     6     2    3.2691E+01  2.6584E-01   3.2425E+01  0.000E+00  0.000E+00  0.000E+00  1.03961E+03  1.431E+00  1.200E+01  6.000E-02  1.477E+00
   1   11    7     6     3    3.2425E+01  2.6542E-01   3.2159E+01  0.000E+00  0.000E+00  0.000E+00  1.03506E+03  1.424E+00  1.200E+01  6.000E-02  1.475E+00
   1   12    7     6     4    3.2159E+01  2.6500E-01   3.1894E+01  0.000E+00  0.000E+00  0.000E+00  1.03051E+03  1.417E+00  1.200E+01  6.000E-02  1.472E+00
   1   13    7     6     5    3.1894E+01  3.4784E-03   3.1891E+01  0.000E+00  0.000E+00  0.000E+00  1.02732E+03  1.413E+00  1.200E+01  2.400E-02  4.831E-02
   1   14    9     7     1    1.5000E+02  1.3316E+00   1.4867E+02  0.000E+00  0.000E+00  0.000E+00  1.03987E+03  2.288E+00  5.529E+01  5.593E-01  7.936E-01
   1   13    8     7     2    1.4867E+02  1.8142E+00   1.4685E+02  0.000E+00  0.000E+00  0.000E+00  1.03478E+03  2.279E+00  5.526E+01  6.148E-01  9.836E-01
   1   13    7     7     3    1.4685E+02  1.4033E+00   1.4545E+02  0.000E+00  0.000E+00  0.000E+00  1.02969E+03  2.271E+00  5.522E+01  5.585E-01  8.376E-01
   1   13    6     8     1    1.7734E+02  8.5755E-01   1.7648E+02  0.000E+00  0.000E+00  0.000E+00  1.02487E+03  2.997E+00  4.345E+01  4.428E-01  6.456E-01
   1   13    5     8     2    1.7648E+02  9.2975E-02   1.7639E+02  0.000E+00  0.000E+00  0.000E+00  1.01862E+03  2.994E+00  4.341E+01  4.423E-01  7.006E-02
   1   13    4     8     3    1.7639E+02 -3.1303E+00   1.7952E+02  0.000E+00  0.000E+00  0.000E+00  1.01238E+03  3.003E+00  4.355E+01  4.438E+00 -2.351E-01
   1   13    3     8     4    1.7952E+02 -4.2365E+00   1.8376E+02  0.000E+00  0.000E+00  0.000E+00  1.00615E+03  3.026E+00  4.388E+01  4.472E+00 -3.158E-01
   1   13    2     8     5    1.8376E+02 -3.1972E+00   1.8696E+02  0.000E+00  0.000E+00  0.000E+00  9.99924E+02  3.050E+00  4.422E+01  4.506E+00 -2.365E-01
   1   13    1     8     6    1.8696E+02 -2.3335E+00   1.8929E+02  0.000E+00  0.000E+00  0.000E+00  9.94942E+02  3.067E+00  4.446E+01  2.719E+00 -2.861E-01



 UBDSV3 SAVING "           GW ET" ON UNIT  61 AT TIME STEP  4, STRESS PERIOD   5
 UBDSV3 SAVING "    UZF RECHARGE" ON UNIT  61 AT TIME STEP  4, STRESS PERIOD   5
 UBDSV3 SAVING " SURFACE LEAKAGE" ON UNIT  61 AT TIME STEP  4, STRESS PERIOD   5
 UBDSV3 SAVING "       HORT+DUNN" ON UNIT  61 AT TIME STEP  4, STRESS PERIOD   5
 UBDSV3 SAVING "  STORAGE CHANGE" ON UNIT  61 AT TIME STEP  4, STRESS PERIOD   5


UNSATURATED ZONE PACKAGE VOLUMETRIC BUDGET FOR  TIME STEP     4 STRESS PERIOD    5
  ------------------------------------------------------------------------------



     CUMULATIVE VOLUMES      L**3       RATES FOR THIS TIME STEP      L**3/T
     ------------------                 ------------------------

           IN:                                      IN:
           ---                                      ---
        INFILTRATION =     8361760.7424          INFILTRATION =           4.5675

          OUT:                                     OUT:
          ----                                     ----
              UZF ET =     8287859.5710                UZF ET =           4.5675
        UZF RECHARGE =       73224.0000          UZF RECHARGE =       0.0000E+00

            IN - OUT =         677.1713              IN - OUT =       0.0000E+00

          STORAGE:                                 STORAGE:
          --------                                 --------
      STORAGE CHANGE =         677.2369        STORAGE CHANGE =       8.4373E-15

 PERCENT DISCREPANCY IS DIFFERENCE BETWEEN IN-OUT MINUS CHANGE IN STORAGE
 DIVIDED BY THE AVERAGE OF IN AND OUT TIMES 100

 PERCENT DISCREPANCY =          -0.00     PERCENT DISCREPANCY =           0.00






 

            AG WELLS      PERIOD    5   STEP   4
 AG WELL      1   LAYER   1   ROW     6   COL     4   RATE   -0.620000    
 AG WELL      2   LAYER   1   ROW     6   COL     5   RATE   -0.620000    
 AG WELL      3   LAYER   1   ROW     7   COL     4   RATE   -0.620000    
 AG WELL      4   LAYER   1   ROW     7   COL     5   RATE   -0.620000    
 AG WELL      5   LAYER   1   ROW     8   COL     4   RATE   -0.620000    
 AG WELL      6   LAYER   1   ROW     8   COL     5   RATE   -0.620000    
 
 

        GW IRRIGATION     PERIOD    5   STEP   4
 AG WELL      1   ROW     6   COL     4   RATE    0.620000    
 AG WELL      2   ROW     6   COL     5   RATE    0.620000    
 AG WELL      3   ROW     7   COL     4   RATE    0.620000    
 AG WELL      4   ROW     7   COL     5   RATE    0.620000    
 AG WELL      5   ROW     8   COL     4   RATE    0.620000    
 AG WELL      6   ROW     8   COL     5   RATE    0.620000    
 
1
  VOLUMETRIC BUDGET FOR AGRICULTURAL FIELDS AT  END OF TIME STEP    4, STRESS PERIOD   5
  ------------------------------------------------------------------------------

     CUMULATIVE VOLUMES      L**3       RATES FOR THIS TIME STEP      L**3/T
     ------------------                 ------------------------

           IN:                                      IN:
           ---                                      ---
               AG WELLS  =     1304572.2500                 AG WELLS  =           3.7200
      DIVERSION SEGMENTS =           0.0000        DIVERSION SEGMENTS =           0.0000
           GW IRRIGATION =           0.0000             GW IRRIGATION =           0.0000
           SW IRRIGATION =           0.0000             SW IRRIGATION =           0.0000
        SYSTEM LOSSES GW =           0.0000          SYSTEM LOSSES GW =           0.0000
        SYSTEM LOSSES SW =           0.0000          SYSTEM LOSSES SW =           0.0000

                TOTAL IN =     1304572.2500                  TOTAL IN =           3.7200

          OUT:                                     OUT:
          ----                                     ----
               AG WELLS  =           0.0000                 AG WELLS  =           0.0000
      DIVERSION SEGMENTS =           0.0000        DIVERSION SEGMENTS =           0.0000
           GW IRRIGATION =     1304572.2500             GW IRRIGATION =           3.7200
           SW IRRIGATION =           0.0000             SW IRRIGATION =           0.0000
        SYSTEM LOSSES GW =           0.0000          SYSTEM LOSSES GW =           0.0000
        SYSTEM LOSSES SW =           0.0000          SYSTEM LOSSES SW =           0.0000

               TOTAL OUT =     1304572.2500                 TOTAL OUT =           3.7200

                IN - OUT =           0.0000                  IN - OUT =           0.0000

     PERCENT DISCREPANCY =           0.00         PERCENT DISCREPANCY =           0.00



1
  VOLUMETRIC BUDGET FOR ENTIRE MODEL AT END OF TIME STEP    4, STRESS PERIOD   5
  ------------------------------------------------------------------------------

     CUMULATIVE VOLUMES      L**3       RATES FOR THIS TIME STEP      L**3/T
     ------------------                 ------------------------

           IN:                                      IN:
           ---                                      ---
             STORAGE     =     6717844.5000               STORAGE     =           6.5772
       CONSTANT HEAD     =           0.0000         CONSTANT HEAD     =           0.0000
     HEAD DEP BOUNDS     =     2376727.0000       HEAD DEP BOUNDS     =           0.2855
      STREAM LEAKAGE     =   103044536.0000        STREAM LEAKAGE     =          11.6087
        UZF RECHARGE     =       73223.9531          UZF RECHARGE     =           0.0000
               GW ET     =           0.0000                 GW ET     =           0.0000
     SURFACE LEAKAGE     =           0.0000       SURFACE LEAKAGE     =           0.0000
           AG WELLS      =           0.0000             AG WELLS      =           0.0000

                TOTAL IN =   112212328.0000                  TOTAL IN =          18.4714

          OUT:                                     OUT:
          ----                                     ----
             STORAGE     =    22866556.0000               STORAGE     =           1.3297
       CONSTANT HEAD     =           0.0000         CONSTANT HEAD     =           0.0000
     HEAD DEP BOUNDS     =     2431776.2500       HEAD DEP BOUNDS     =           0.2964
      STREAM LEAKAGE     =    85508472.0000        STREAM LEAKAGE     =          12.8975
        UZF RECHARGE     =           0.0000          UZF RECHARGE     =           0.0000
               GW ET     =      105841.6641                 GW ET     =           0.2263
     SURFACE LEAKAGE     =           0.0000       SURFACE LEAKAGE     =           0.0000
           AG WELLS      =     1304572.2500             AG WELLS      =           3.7200

               TOTAL OUT =   112217216.0000                 TOTAL OUT =          18.4699

                IN - OUT =       -4888.0000                  IN - OUT =       1.5125E-03

     PERCENT DISCREPANCY =          -0.00         PERCENT DISCREPANCY =           0.01






         TIME SUMMARY AT END OF TIME STEP    4 IN STRESS PERIOD    5
                    SECONDS     MINUTES      HOURS       DAYS        YEARS
                    -----------------------------------------------------------
   TIME STEP LENGTH  87667.      1461.1      24.352      1.0147     2.77799E-03
 STRESS PERIOD TIME 3.50667E+05  5844.4      97.407      4.0586     1.11120E-02
         TOTAL TIME 8.32706E+06 1.38784E+05  2313.1      96.378     0.26387    
1
 
 SOLVING FOR HEAD 
                                                   Max.-Head-Change                         Max.-Flux-Residual
  Residual-Control   Outer-Iter.   Inner-Iter.     Column Row Layer    Maximum-Head-Change  Column Row Layer    Maximum-Flux-Residual          L2-NORM 
          0                 1           2             4   13     1      -0.1168955197E-01       4   13    1        -0.6840156888E+00      0.1860399452E+01
          0                 2           2             4   13     1       0.1127404916E-02       4   13    1         0.6782840292E-01      0.1840035425E+00
          0                 3           1             4   13     1      -0.7586447956E-04       4   13    1        -0.4692710137E-02      0.1269144948E-01

    ------------------------------------------------
       NWT REQUIRED            3 OUTER ITERATIONS 
       AND A TOTAL OF          5 INNER ITERATIONS.
    ------------------------------------------------

 NO OUTPUT CONTROL FOR STRESS PERIOD    5   TIME STEP    5
 
 SOLVING FOR HEAD 
                                                   Max.-Head-Change                         Max.-Flux-Residual
  Residual-Control   Outer-Iter.   Inner-Iter.     Column Row Layer    Maximum-Head-Change  Column Row Layer    Maximum-Flux-Residual          L2-NORM 
          0                 1           2             4    7     1      -0.1132875355E-01       4   13    1        -0.6074879610E+00      0.1773007979E+01
          0                 2           2             4    7     1       0.1101976314E-02       4   13    1         0.6023479519E-01      0.1755211068E+00
          0                 3           1             4    7     1      -0.7504052595E-04       4   13    1        -0.4166690002E-02      0.1212162858E-01

    ------------------------------------------------
       NWT REQUIRED            3 OUTER ITERATIONS 
       AND A TOTAL OF          5 INNER ITERATIONS.
    ------------------------------------------------

 OUTPUT CONTROL FOR STRESS PERIOD    5   TIME STEP    6
    PRINT BUDGET
    SAVE BUDGET
 UBDSV1 SAVING "         STORAGE" ON UNIT 102 AT TIME STEP  6, STRESS PERIOD   5
 UBDSV2 SAVING "   CONSTANT HEAD" ON UNIT 102 AT TIME STEP  6, STRESS PERIOD   5
 UBDSV1 SAVING "FLOW RIGHT FACE " ON UNIT 102 AT TIME STEP  6, STRESS PERIOD   5
 UBDSV1 SAVING "FLOW FRONT FACE " ON UNIT 102 AT TIME STEP  6, STRESS PERIOD   5

  HEAD DEP BOUNDS   PERIOD    5   STEP     6
 BOUNDARY      1   LAYER   1   ROW    13   COL     1   RATE   -0.295931    
 BOUNDARY      2   LAYER   1   ROW    14   COL     9   RATE    0.285474    



 STREAM LISTING     PERIOD      5   STEP        6

 LAYER ROW COL. STREAM  RCH.  FLOW INTO     FLOW TO   FLOW OUT OF   OVRLND.     DIRECT     STREAM       STREAM     STREAM     STREAM   STREAMBED  STREAMBED
                SEG.NO.  NO.  STRM. RCH.    AQUIFER    STRM. RCH.    RUNOFF     PRECIP       ET          HEAD       DEPTH      WIDTH   CONDCTNC.   GRADIENT

   1    1    1     1     1    2.8000E+01  2.5860E-01   2.7742E+01  0.000E+00  0.000E+00  0.000E+00  1.09427E+03  1.221E+00  1.361E+01  6.126E-02  1.407E+00
   1    2    2     1     2    2.7742E+01  4.0002E-01   2.7341E+01  0.000E+00  0.000E+00  0.000E+00  1.08928E+03  1.217E+00  1.355E+01  9.487E-02  1.406E+00
   1    3    3     1     3    2.7341E+01  3.4070E-01   2.7001E+01  0.000E+00  0.000E+00  0.000E+00  1.08363E+03  1.212E+00  1.348E+01  8.090E-02  1.404E+00
   1    3    4     1     4    2.7001E+01  3.1335E-01   2.6687E+01  0.000E+00  0.000E+00  0.000E+00  1.07861E+03  1.207E+00  1.342E+01  7.448E-02  1.402E+00
   1    4    5     2     1    2.4687E+01  3.2711E-01   2.4360E+01  0.000E+00  0.000E+00  0.000E+00  1.07313E+03  1.194E+00  1.200E+01  7.800E-02  1.398E+00
   1    5    6     2     2    2.4360E+01  2.5111E-01   2.4109E+01  0.000E+00  0.000E+00  0.000E+00  1.06769E+03  1.185E+00  1.200E+01  6.000E-02  1.395E+00
   1    6    6     2     3    2.4109E+01  2.5067E-01   2.3859E+01  0.000E+00  0.000E+00  0.000E+00  1.06297E+03  1.178E+00  1.200E+01  6.000E-02  1.393E+00
   1    7    6     2     4    2.3859E+01  2.5023E-01   2.3608E+01  0.000E+00  0.000E+00  0.000E+00  1.05825E+03  1.170E+00  1.200E+01  6.000E-02  1.390E+00
   1    8    6     2     5    2.3608E+01  2.4978E-01   2.3359E+01  0.000E+00  0.000E+00  0.000E+00  1.05352E+03  1.163E+00  1.200E+01  6.000E-02  1.388E+00
   1    3    5     3     1    2.0000E+00  2.8252E-01   1.7175E+00  0.000E+00  0.000E+00  0.000E+00  1.07555E+03  1.909E+00  9.636E+00  7.227E-02  1.955E+00
   1    3    6     3     2    1.7175E+00  2.4905E-01   1.4684E+00  0.000E+00  0.000E+00  0.000E+00  1.07264E+03  1.727E+00  8.909E+00  6.682E-02  1.864E+00
   1    3    7     3     3    1.4684E+00  1.9718E-01   1.2712E+00  0.000E+00  0.000E+00  0.000E+00  1.06987E+03  1.555E+00  8.218E+00  5.547E-02  1.777E+00
   1    4    8     3     4    1.2712E+00  2.2567E-01   1.0456E+00  0.000E+00  0.000E+00  0.000E+00  1.06682E+03  1.364E+00  7.455E+00  6.709E-02  1.682E+00
   1    5    8     3     5    1.0456E+00  1.5790E-01   8.8768E-01  0.000E+00  0.000E+00  0.000E+00  1.06362E+03  1.164E+00  6.655E+00  4.991E-02  1.582E+00
   1    6    8     3     6    8.8768E-01  5.5980E-02   8.3170E-01  0.000E+00  0.000E+00  0.000E+00  1.06158E+03  1.036E+00  6.145E+00  1.844E-02  1.518E+00
   1    5   10     4     1    1.0000E+01  9.0919E-02   9.9091E+00  0.000E+00  0.000E+00  0.000E+00  1.07836E+03  6.368E-01  1.000E+01  2.500E-02  1.212E+00
   1    5    9     4     2    9.9091E+00  1.8158E-01   9.7275E+00  0.000E+00  0.000E+00  0.000E+00  1.07154E+03  6.315E-01  1.000E+01  5.000E-02  1.211E+00
   1    6    8     4     3    9.7275E+00  1.2689E-01   9.6006E+00  0.000E+00  0.000E+00  0.000E+00  1.06381E+03  6.256E-01  1.000E+01  3.500E-02  1.209E+00
   1    6    8     5     1    1.0432E+01  2.2686E-01   1.0205E+01  0.000E+00  0.000E+00  0.000E+00  1.05868E+03  6.790E-01  1.542E+01  6.166E-02  1.226E+00
   1    7    7     5     2    1.0205E+01  2.7894E-01   9.9265E+00  0.000E+00  0.000E+00  0.000E+00  1.05417E+03  6.732E-01  1.519E+01  7.594E-02  1.224E+00
   1    8    7     5     3    9.9265E+00  1.9221E-01   9.7343E+00  0.000E+00  0.000E+00  0.000E+00  1.04992E+03  6.676E-01  1.497E+01  5.241E-02  1.223E+00
   1    8    6     5     4    9.7343E+00  1.3577E-01   9.5985E+00  0.000E+00  0.000E+00  0.000E+00  1.04691E+03  6.637E-01  1.482E+01  3.706E-02  1.221E+00
   1    9    6     6     1    3.2957E+01  2.6627E-01   3.2691E+01  0.000E+00  0.000E+00  0.000E+00  1.04417E+03  1.438E+00  1.200E+01  6.000E-02  1.479E+00
   1   10    7     6     2    3.2691E+01  2.6585E-01   3.2425E+01  0.000E+00  0.000E+00  0.000E+00  1.03961E+03  1.431E+00  1.200E+01  6.000E-02  1.477E+00
   1   11    7     6     3    3.2425E+01  2.6542E-01   3.2160E+01  0.000E+00  0.000E+00  0.000E+00  1.03506E+03  1.424E+00  1.200E+01  6.000E-02  1.475E+00
   1   12    7     6     4    3.2160E+01  2.6500E-01   3.1895E+01  0.000E+00  0.000E+00  0.000E+00  1.03051E+03  1.417E+00  1.200E+01  6.000E-02  1.472E+00
   1   13    7     6     5    3.1895E+01  3.4601E-03   3.1891E+01  0.000E+00  0.000E+00  0.000E+00  1.02732E+03  1.413E+00  1.200E+01  2.400E-02  4.806E-02
   1   14    9     7     1    1.5000E+02  1.3316E+00   1.4867E+02  0.000E+00  0.000E+00  0.000E+00  1.03987E+03  2.288E+00  5.529E+01  5.593E-01  7.936E-01
   1   13    8     7     2    1.4867E+02  1.8139E+00   1.4685E+02  0.000E+00  0.000E+00  0.000E+00  1.03478E+03  2.279E+00  5.526E+01  6.148E-01  9.835E-01
   1   13    7     7     3    1.4685E+02  1.4029E+00   1.4545E+02  0.000E+00  0.000E+00  0.000E+00  1.02969E+03  2.271E+00  5.522E+01  5.585E-01  8.374E-01
   1   13    6     8     1    1.7734E+02  8.5882E-01   1.7648E+02  0.000E+00  0.000E+00  0.000E+00  1.02487E+03  2.997E+00  4.345E+01  4.428E-01  6.465E-01
   1   13    5     8     2    1.7648E+02  9.4080E-02   1.7639E+02  0.000E+00  0.000E+00  0.000E+00  1.01862E+03  2.994E+00  4.341E+01  4.423E-01  7.090E-02
   1   13    4     8     3    1.7639E+02 -3.0421E+00   1.7943E+02  0.000E+00  0.000E+00  0.000E+00  1.01238E+03  3.003E+00  4.354E+01  4.437E+00 -2.285E-01
   1   13    3     8     4    1.7943E+02 -4.1504E+00   1.8358E+02  0.000E+00  0.000E+00  0.000E+00  1.00615E+03  3.026E+00  4.387E+01  4.471E+00 -3.095E-01
   1   13    2     8     5    1.8358E+02 -3.1109E+00   1.8669E+02  0.000E+00  0.000E+00  0.000E+00  9.99923E+02  3.048E+00  4.420E+01  4.504E+00 -2.302E-01
   1   13    1     8     6    1.8669E+02 -2.3037E+00   1.8900E+02  0.000E+00  0.000E+00  0.000E+00  9.94940E+02  3.065E+00  4.444E+01  2.717E+00 -2.826E-01



 UBDSV3 SAVING "           GW ET" ON UNIT  61 AT TIME STEP  6, STRESS PERIOD   5
 UBDSV3 SAVING "    UZF RECHARGE" ON UNIT  61 AT TIME STEP  6, STRESS PERIOD   5
 UBDSV3 SAVING " SURFACE LEAKAGE" ON UNIT  61 AT TIME STEP  6, STRESS PERIOD   5
 UBDSV3 SAVING "       HORT+DUNN" ON UNIT  61 AT TIME STEP  6, STRESS PERIOD   5
 UBDSV3 SAVING "  STORAGE CHANGE" ON UNIT  61 AT TIME STEP  6, STRESS PERIOD   5


UNSATURATED ZONE PACKAGE VOLUMETRIC BUDGET FOR  TIME STEP     6 STRESS PERIOD    5
  ------------------------------------------------------------------------------



     CUMULATIVE VOLUMES      L**3       RATES FOR THIS TIME STEP      L**3/T
     ------------------                 ------------------------

           IN:                                      IN:
           ---                                      ---
        INFILTRATION =     9162595.7029          INFILTRATION =           4.5675

          OUT:                                     OUT:
          ----                                     ----
              UZF ET =     9088694.5315                UZF ET =           4.5675
        UZF RECHARGE =       73224.0000          UZF RECHARGE =       0.0000E+00

            IN - OUT =         677.1713              IN - OUT =       0.0000E+00

          STORAGE:                                 STORAGE:
          --------                                 --------
      STORAGE CHANGE =         677.2369        STORAGE CHANGE =       8.4381E-15

 PERCENT DISCREPANCY IS DIFFERENCE BETWEEN IN-OUT MINUS CHANGE IN STORAGE
 DIVIDED BY THE AVERAGE OF IN AND OUT TIMES 100

 PERCENT DISCREPANCY =           0.00     PERCENT DISCREPANCY =           0.00






 

            AG WELLS      PERIOD    5   STEP   6
 AG WELL      1   LAYER   1   ROW     6   COL     4   RATE   -0.620000    
 AG WELL      2   LAYER   1   ROW     6   COL     5   RATE   -0.620000    
 AG WELL      3   LAYER   1   ROW     7   COL     4   RATE   -0.620000    
 AG WELL      4   LAYER   1   ROW     7   COL     5   RATE   -0.620000    
 AG WELL      5   LAYER   1   ROW     8   COL     4   RATE   -0.620000    
 AG WELL      6   LAYER   1   ROW     8   COL     5   RATE   -0.620000    
 
 

        GW IRRIGATION     PERIOD    5   STEP   6
 AG WELL      1   ROW     6   COL     4   RATE    0.620000    
 AG WELL      2   ROW     6   COL     5   RATE    0.620000    
 AG WELL      3   ROW     7   COL     4   RATE    0.620000    
 AG WELL      4   ROW     7   COL     5   RATE    0.620000    
 AG WELL      5   ROW     8   COL     4   RATE    0.620000    
 AG WELL      6   ROW     8   COL     5   RATE    0.620000    
 
1
  VOLUMETRIC BUDGET FOR AGRICULTURAL FIELDS AT  END OF TIME STEP    6, STRESS PERIOD   5
  ------------------------------------------------------------------------------

     CUMULATIVE VOLUMES      L**3       RATES FOR THIS TIME STEP      L**3/T
     ------------------                 ------------------------

           IN:                                      IN:
           ---                                      ---
               AG WELLS  =     1956812.2500                 AG WELLS  =           3.7200
      DIVERSION SEGMENTS =           0.0000        DIVERSION SEGMENTS =           0.0000
           GW IRRIGATION =           0.0000             GW IRRIGATION =           0.0000
           SW IRRIGATION =           0.0000             SW IRRIGATION =           0.0000
        SYSTEM LOSSES GW =           0.0000          SYSTEM LOSSES GW =           0.0000
        SYSTEM LOSSES SW =           0.0000          SYSTEM LOSSES SW =           0.0000

                TOTAL IN =     1956812.2500                  TOTAL IN =           3.7200

          OUT:                                     OUT:
          ----                                     ----
               AG WELLS  =           0.0000                 AG WELLS  =           0.0000
      DIVERSION SEGMENTS =           0.0000        DIVERSION SEGMENTS =           0.0000
           GW IRRIGATION =     1956812.2500             GW IRRIGATION =           3.7200
           SW IRRIGATION =           0.0000             SW IRRIGATION =           0.0000
        SYSTEM LOSSES GW =           0.0000          SYSTEM LOSSES GW =           0.0000
        SYSTEM LOSSES SW =           0.0000          SYSTEM LOSSES SW =           0.0000

               TOTAL OUT =     1956812.2500                 TOTAL OUT =           3.7200

                IN - OUT =           0.0000                  IN - OUT =           0.0000

     PERCENT DISCREPANCY =           0.00         PERCENT DISCREPANCY =           0.00



1
  VOLUMETRIC BUDGET FOR ENTIRE MODEL AT END OF TIME STEP    6, STRESS PERIOD   5
  ------------------------------------------------------------------------------

     CUMULATIVE VOLUMES      L**3       RATES FOR THIS TIME STEP      L**3/T
     ------------------                 ------------------------

           IN:                                      IN:
           ---                                      ---
             STORAGE     =     7815116.0000               STORAGE     =           6.1593
       CONSTANT HEAD     =           0.0000         CONSTANT HEAD     =           0.0000
     HEAD DEP BOUNDS     =     2426780.0000       HEAD DEP BOUNDS     =           0.2855
      STREAM LEAKAGE     =   105080144.0000        STREAM LEAKAGE     =          11.6104
        UZF RECHARGE     =       73223.9531          UZF RECHARGE     =           0.0000
               GW ET     =           0.0000                 GW ET     =           0.0000
     SURFACE LEAKAGE     =           0.0000       SURFACE LEAKAGE     =           0.0000
           AG WELLS      =           0.0000             AG WELLS      =           0.0000

                TOTAL IN =   115395264.0000                  TOTAL IN =          18.0551

          OUT:                                     OUT:
          ----                                     ----
             STORAGE     =    23089462.0000               STORAGE     =           1.2539
       CONSTANT HEAD     =           0.0000         CONSTANT HEAD     =           0.0000
     HEAD DEP BOUNDS     =     2483682.7500       HEAD DEP BOUNDS     =           0.2959
      STREAM LEAKAGE     =    87731056.0000        STREAM LEAKAGE     =          12.6071
        UZF RECHARGE     =           0.0000          UZF RECHARGE     =           0.0000
               GW ET     =      138885.9219                 GW ET     =           0.1768
     SURFACE LEAKAGE     =           0.0000       SURFACE LEAKAGE     =           0.0000
           AG WELLS      =     1956812.2500             AG WELLS      =           3.7200

               TOTAL OUT =   115399904.0000                 TOTAL OUT =          18.0537

                IN - OUT =       -4640.0000                  IN - OUT =       1.4153E-03

     PERCENT DISCREPANCY =          -0.00         PERCENT DISCREPANCY =           0.01






         TIME SUMMARY AT END OF TIME STEP    6 IN STRESS PERIOD    5
                    SECONDS     MINUTES      HOURS       DAYS        YEARS
                    -----------------------------------------------------------
   TIME STEP LENGTH  87667.      1461.1      24.352      1.0147     2.77799E-03
 STRESS PERIOD TIME 5.26000E+05  8766.7      146.11      6.0880     1.66679E-02
         TOTAL TIME 8.50239E+06 1.41707E+05  2361.8      98.407     0.26942    
1
 
 SOLVING FOR HEAD 
                                                   Max.-Head-Change                         Max.-Flux-Residual
  Residual-Control   Outer-Iter.   Inner-Iter.     Column Row Layer    Maximum-Head-Change  Column Row Layer    Maximum-Flux-Residual          L2-NORM 
          0                 1           2             4    7     1      -0.1123805204E-01       4    7    1        -0.5886323288E+00      0.1695955468E+01
          0                 2           2             4    7     1       0.1088826119E-02       4    7    1         0.5858708369E-01      0.1679525295E+00
          0                 3           1             4    7     1      -0.7414503641E-04       4    7    1        -0.4101098505E-02      0.1161306735E-01

    ------------------------------------------------
       NWT REQUIRED            3 OUTER ITERATIONS 
       AND A TOTAL OF          5 INNER ITERATIONS.
    ------------------------------------------------

 OUTPUT CONTROL FOR STRESS PERIOD    5   TIME STEP    7
    PRINT BUDGET
    SAVE BUDGET
 UBDSV1 SAVING "         STORAGE" ON UNIT 102 AT TIME STEP  7, STRESS PERIOD   5
 UBDSV2 SAVING "   CONSTANT HEAD" ON UNIT 102 AT TIME STEP  7, STRESS PERIOD   5
 UBDSV1 SAVING "FLOW RIGHT FACE " ON UNIT 102 AT TIME STEP  7, STRESS PERIOD   5
 UBDSV1 SAVING "FLOW FRONT FACE " ON UNIT 102 AT TIME STEP  7, STRESS PERIOD   5

  HEAD DEP BOUNDS   PERIOD    5   STEP     7
 BOUNDARY      1   LAYER   1   ROW    13   COL     1   RATE   -0.295713    
 BOUNDARY      2   LAYER   1   ROW    14   COL     9   RATE    0.285475    



 STREAM LISTING     PERIOD      5   STEP        7

 LAYER ROW COL. STREAM  RCH.  FLOW INTO     FLOW TO   FLOW OUT OF   OVRLND.     DIRECT     STREAM       STREAM     STREAM     STREAM   STREAMBED  STREAMBED
                SEG.NO.  NO.  STRM. RCH.    AQUIFER    STRM. RCH.    RUNOFF     PRECIP       ET          HEAD       DEPTH      WIDTH   CONDCTNC.   GRADIENT

   1    1    1     1     1    2.8000E+01  2.5860E-01   2.7742E+01  0.000E+00  0.000E+00  0.000E+00  1.09427E+03  1.221E+00  1.361E+01  6.126E-02  1.407E+00
   1    2    2     1     2    2.7742E+01  4.0002E-01   2.7341E+01  0.000E+00  0.000E+00  0.000E+00  1.08928E+03  1.217E+00  1.355E+01  9.487E-02  1.406E+00
   1    3    3     1     3    2.7341E+01  3.4070E-01   2.7001E+01  0.000E+00  0.000E+00  0.000E+00  1.08363E+03  1.212E+00  1.348E+01  8.090E-02  1.404E+00
   1    3    4     1     4    2.7001E+01  3.1335E-01   2.6687E+01  0.000E+00  0.000E+00  0.000E+00  1.07861E+03  1.207E+00  1.342E+01  7.448E-02  1.402E+00
   1    4    5     2     1    2.4687E+01  3.2711E-01   2.4360E+01  0.000E+00  0.000E+00  0.000E+00  1.07313E+03  1.194E+00  1.200E+01  7.800E-02  1.398E+00
   1    5    6     2     2    2.4360E+01  2.5111E-01   2.4109E+01  0.000E+00  0.000E+00  0.000E+00  1.06769E+03  1.185E+00  1.200E+01  6.000E-02  1.395E+00
   1    6    6     2     3    2.4109E+01  2.5067E-01   2.3859E+01  0.000E+00  0.000E+00  0.000E+00  1.06297E+03  1.178E+00  1.200E+01  6.000E-02  1.393E+00
   1    7    6     2     4    2.3859E+01  2.5023E-01   2.3608E+01  0.000E+00  0.000E+00  0.000E+00  1.05825E+03  1.170E+00  1.200E+01  6.000E-02  1.390E+00
   1    8    6     2     5    2.3608E+01  2.4978E-01   2.3359E+01  0.000E+00  0.000E+00  0.000E+00  1.05352E+03  1.163E+00  1.200E+01  6.000E-02  1.388E+00
   1    3    5     3     1    2.0000E+00  2.8252E-01   1.7175E+00  0.000E+00  0.000E+00  0.000E+00  1.07555E+03  1.909E+00  9.636E+00  7.227E-02  1.955E+00
   1    3    6     3     2    1.7175E+00  2.4905E-01   1.4684E+00  0.000E+00  0.000E+00  0.000E+00  1.07264E+03  1.727E+00  8.909E+00  6.682E-02  1.864E+00
   1    3    7     3     3    1.4684E+00  1.9718E-01   1.2712E+00  0.000E+00  0.000E+00  0.000E+00  1.06987E+03  1.555E+00  8.218E+00  5.547E-02  1.777E+00
   1    4    8     3     4    1.2712E+00  2.2567E-01   1.0456E+00  0.000E+00  0.000E+00  0.000E+00  1.06682E+03  1.364E+00  7.455E+00  6.709E-02  1.682E+00
   1    5    8     3     5    1.0456E+00  1.5790E-01   8.8768E-01  0.000E+00  0.000E+00  0.000E+00  1.06362E+03  1.164E+00  6.655E+00  4.991E-02  1.582E+00
   1    6    8     3     6    8.8768E-01  5.5980E-02   8.3170E-01  0.000E+00  0.000E+00  0.000E+00  1.06158E+03  1.036E+00  6.145E+00  1.844E-02  1.518E+00
   1    5   10     4     1    1.0000E+01  9.0919E-02   9.9091E+00  0.000E+00  0.000E+00  0.000E+00  1.07836E+03  6.368E-01  1.000E+01  2.500E-02  1.212E+00
   1    5    9     4     2    9.9091E+00  1.8158E-01   9.7275E+00  0.000E+00  0.000E+00  0.000E+00  1.07154E+03  6.315E-01  1.000E+01  5.000E-02  1.211E+00
   1    6    8     4     3    9.7275E+00  1.2689E-01   9.6006E+00  0.000E+00  0.000E+00  0.000E+00  1.06381E+03  6.256E-01  1.000E+01  3.500E-02  1.209E+00
   1    6    8     5     1    1.0432E+01  2.2686E-01   1.0205E+01  0.000E+00  0.000E+00  0.000E+00  1.05868E+03  6.790E-01  1.542E+01  6.166E-02  1.226E+00
   1    7    7     5     2    1.0205E+01  2.7894E-01   9.9265E+00  0.000E+00  0.000E+00  0.000E+00  1.05417E+03  6.732E-01  1.519E+01  7.594E-02  1.224E+00
   1    8    7     5     3    9.9265E+00  1.9221E-01   9.7343E+00  0.000E+00  0.000E+00  0.000E+00  1.04992E+03  6.676E-01  1.497E+01  5.241E-02  1.223E+00
   1    8    6     5     4    9.7343E+00  1.3577E-01   9.5985E+00  0.000E+00  0.000E+00  0.000E+00  1.04691E+03  6.637E-01  1.482E+01  3.706E-02  1.221E+00
   1    9    6     6     1    3.2957E+01  2.6627E-01   3.2691E+01  0.000E+00  0.000E+00  0.000E+00  1.04417E+03  1.438E+00  1.200E+01  6.000E-02  1.479E+00
   1   10    7     6     2    3.2691E+01  2.6585E-01   3.2425E+01  0.000E+00  0.000E+00  0.000E+00  1.03961E+03  1.431E+00  1.200E+01  6.000E-02  1.477E+00
   1   11    7     6     3    3.2425E+01  2.6542E-01   3.2160E+01  0.000E+00  0.000E+00  0.000E+00  1.03506E+03  1.424E+00  1.200E+01  6.000E-02  1.475E+00
   1   12    7     6     4    3.2160E+01  2.6500E-01   3.1895E+01  0.000E+00  0.000E+00  0.000E+00  1.03051E+03  1.417E+00  1.200E+01  6.000E-02  1.472E+00
   1   13    7     6     5    3.1895E+01  3.4517E-03   3.1891E+01  0.000E+00  0.000E+00  0.000E+00  1.02732E+03  1.413E+00  1.200E+01  2.400E-02  4.794E-02
   1   14    9     7     1    1.5000E+02  1.3316E+00   1.4867E+02  0.000E+00  0.000E+00  0.000E+00  1.03987E+03  2.288E+00  5.529E+01  5.593E-01  7.936E-01
   1   13    8     7     2    1.4867E+02  1.8137E+00   1.4685E+02  0.000E+00  0.000E+00  0.000E+00  1.03478E+03  2.279E+00  5.526E+01  6.148E-01  9.834E-01
   1   13    7     7     3    1.4685E+02  1.4027E+00   1.4545E+02  0.000E+00  0.000E+00  0.000E+00  1.02969E+03  2.271E+00  5.522E+01  5.585E-01  8.372E-01
   1   13    6     8     1    1.7734E+02  8.5941E-01   1.7648E+02  0.000E+00  0.000E+00  0.000E+00  1.02487E+03  2.997E+00  4.345E+01  4.428E-01  6.470E-01
   1   13    5     8     2    1.7648E+02  9.4663E-02   1.7639E+02  0.000E+00  0.000E+00  0.000E+00  1.01862E+03  2.994E+00  4.341E+01  4.423E-01  7.134E-02
   1   13    4     8     3    1.7639E+02 -3.0053E+00   1.7939E+02  0.000E+00  0.000E+00  0.000E+00  1.01238E+03  3.003E+00  4.354E+01  4.437E+00 -2.258E-01
   1   13    3     8     4    1.7939E+02 -4.1137E+00   1.8351E+02  0.000E+00  0.000E+00  0.000E+00  1.00615E+03  3.025E+00  4.387E+01  4.470E+00 -3.068E-01
   1   13    2     8     5    1.8351E+02 -3.0724E+00   1.8658E+02  0.000E+00  0.000E+00  0.000E+00  9.99923E+02  3.048E+00  4.419E+01  4.503E+00 -2.274E-01
   1   13    1     8     6    1.8658E+02 -2.2895E+00   1.8887E+02  0.000E+00  0.000E+00  0.000E+00  9.94939E+02  3.064E+00  4.443E+01  2.716E+00 -2.809E-01



 UBDSV3 SAVING "           GW ET" ON UNIT  61 AT TIME STEP  7, STRESS PERIOD   5
 UBDSV3 SAVING "    UZF RECHARGE" ON UNIT  61 AT TIME STEP  7, STRESS PERIOD   5
 UBDSV3 SAVING " SURFACE LEAKAGE" ON UNIT  61 AT TIME STEP  7, STRESS PERIOD   5
 UBDSV3 SAVING "       HORT+DUNN" ON UNIT  61 AT TIME STEP  7, STRESS PERIOD   5
 UBDSV3 SAVING "  STORAGE CHANGE" ON UNIT  61 AT TIME STEP  7, STRESS PERIOD   5


UNSATURATED ZONE PACKAGE VOLUMETRIC BUDGET FOR  TIME STEP     7 STRESS PERIOD    5
  ------------------------------------------------------------------------------



     CUMULATIVE VOLUMES      L**3       RATES FOR THIS TIME STEP      L**3/T
     ------------------                 ------------------------

           IN:                                      IN:
           ---                                      ---
        INFILTRATION =     9563013.1831          INFILTRATION =           4.5675

          OUT:                                     OUT:
          ----                                     ----
              UZF ET =     9489112.0118                UZF ET =           4.5675
        UZF RECHARGE =       73224.0000          UZF RECHARGE =       0.0000E+00

            IN - OUT =         677.1713              IN - OUT =       0.0000E+00

          STORAGE:                                 STORAGE:
          --------                                 --------
      STORAGE CHANGE =         677.2369        STORAGE CHANGE =       8.4373E-15

 PERCENT DISCREPANCY IS DIFFERENCE BETWEEN IN-OUT MINUS CHANGE IN STORAGE
 DIVIDED BY THE AVERAGE OF IN AND OUT TIMES 100

 PERCENT DISCREPANCY =           0.00     PERCENT DISCREPANCY =           0.00






 

            AG WELLS      PERIOD    5   STEP   7
 AG WELL      1   LAYER   1   ROW     6   COL     4   RATE   -0.620000    
 AG WELL      2   LAYER   1   ROW     6   COL     5   RATE   -0.620000    
 AG WELL      3   LAYER   1   ROW     7   COL     4   RATE   -0.620000    
 AG WELL      4   LAYER   1   ROW     7   COL     5   RATE   -0.620000    
 AG WELL      5   LAYER   1   ROW     8   COL     4   RATE   -0.620000    
 AG WELL      6   LAYER   1   ROW     8   COL     5   RATE   -0.620000    
 
 

        GW IRRIGATION     PERIOD    5   STEP   7
 AG WELL      1   ROW     6   COL     4   RATE    0.620000    
 AG WELL      2   ROW     6   COL     5   RATE    0.620000    
 AG WELL      3   ROW     7   COL     4   RATE    0.620000    
 AG WELL      4   ROW     7   COL     5   RATE    0.620000    
 AG WELL      5   ROW     8   COL     4   RATE    0.620000    
 AG WELL      6   ROW     8   COL     5   RATE    0.620000    
 
1
  VOLUMETRIC BUDGET FOR AGRICULTURAL FIELDS AT  END OF TIME STEP    7, STRESS PERIOD   5
  ------------------------------------------------------------------------------

     CUMULATIVE VOLUMES      L**3       RATES FOR THIS TIME STEP      L**3/T
     ------------------                 ------------------------

           IN:                                      IN:
           ---                                      ---
               AG WELLS  =     2282932.2500                 AG WELLS  =           3.7200
      DIVERSION SEGMENTS =           0.0000        DIVERSION SEGMENTS =           0.0000
           GW IRRIGATION =           0.0000             GW IRRIGATION =           0.0000
           SW IRRIGATION =           0.0000             SW IRRIGATION =           0.0000
        SYSTEM LOSSES GW =           0.0000          SYSTEM LOSSES GW =           0.0000
        SYSTEM LOSSES SW =           0.0000          SYSTEM LOSSES SW =           0.0000

                TOTAL IN =     2282932.2500                  TOTAL IN =           3.7200

          OUT:                                     OUT:
          ----                                     ----
               AG WELLS  =           0.0000                 AG WELLS  =           0.0000
      DIVERSION SEGMENTS =           0.0000        DIVERSION SEGMENTS =           0.0000
           GW IRRIGATION =     2282932.2500             GW IRRIGATION =           3.7200
           SW IRRIGATION =           0.0000             SW IRRIGATION =           0.0000
        SYSTEM LOSSES GW =           0.0000          SYSTEM LOSSES GW =           0.0000
        SYSTEM LOSSES SW =           0.0000          SYSTEM LOSSES SW =           0.0000

               TOTAL OUT =     2282932.2500                 TOTAL OUT =           3.7200

                IN - OUT =           0.0000                  IN - OUT =           0.0000

     PERCENT DISCREPANCY =           0.00         PERCENT DISCREPANCY =           0.00



1
  VOLUMETRIC BUDGET FOR ENTIRE MODEL AT END OF TIME STEP    7, STRESS PERIOD   5
  ------------------------------------------------------------------------------

     CUMULATIVE VOLUMES      L**3       RATES FOR THIS TIME STEP      L**3/T
     ------------------                 ------------------------

           IN:                                      IN:
           ---                                      ---
             STORAGE     =     8339191.0000               STORAGE     =           5.9780
       CONSTANT HEAD     =           0.0000         CONSTANT HEAD     =           0.0000
     HEAD DEP BOUNDS     =     2451806.7500       HEAD DEP BOUNDS     =           0.2855
      STREAM LEAKAGE     =   106098056.0000        STREAM LEAKAGE     =          11.6112
        UZF RECHARGE     =       73223.9531          UZF RECHARGE     =           0.0000
               GW ET     =           0.0000                 GW ET     =           0.0000
     SURFACE LEAKAGE     =           0.0000       SURFACE LEAKAGE     =           0.0000
           AG WELLS      =           0.0000             AG WELLS      =           0.0000

                TOTAL IN =   116962280.0000                  TOTAL IN =          17.8747

          OUT:                                     OUT:
          ----                                     ----
             STORAGE     =    23196488.0000               STORAGE     =           1.2208
       CONSTANT HEAD     =           0.0000         CONSTANT HEAD     =           0.0000
     HEAD DEP BOUNDS     =     2509607.0000       HEAD DEP BOUNDS     =           0.2957
      STREAM LEAKAGE     =    88825216.0000        STREAM LEAKAGE     =          12.4809
        UZF RECHARGE     =           0.0000          UZF RECHARGE     =           0.0000
               GW ET     =      152550.5312                 GW ET     =           0.1559
     SURFACE LEAKAGE     =           0.0000       SURFACE LEAKAGE     =           0.0000
           AG WELLS      =     2282932.2500             AG WELLS      =           3.7200

               TOTAL OUT =   116966800.0000                 TOTAL OUT =          17.8733

                IN - OUT =       -4520.0000                  IN - OUT =       1.3714E-03

     PERCENT DISCREPANCY =          -0.00         PERCENT DISCREPANCY =           0.01






         TIME SUMMARY AT END OF TIME STEP    7 IN STRESS PERIOD    5
                    SECONDS     MINUTES      HOURS       DAYS        YEARS
                    -----------------------------------------------------------
   TIME STEP LENGTH  87667.      1461.1      24.352      1.0147     2.77799E-03
 STRESS PERIOD TIME 6.13667E+05  10228.      170.46      7.1026     1.94459E-02
         TOTAL TIME 8.59006E+06 1.43168E+05  2386.1      99.422     0.27220    
1
 
 SOLVING FOR HEAD 
                                                   Max.-Head-Change                         Max.-Flux-Residual
  Residual-Control   Outer-Iter.   Inner-Iter.     Column Row Layer    Maximum-Head-Change  Column Row Layer    Maximum-Flux-Residual          L2-NORM 
          0                 1           2             4    7     1      -0.1115485898E-01       4    7    1        -0.5841602448E+00      0.1627948701E+01
          0                 2           2             4    7     1       0.1085062046E-02       4    7    1         0.5841592449E-01      0.1614466739E+00
          0                 3           1             4    7     1      -0.7388871831E-04       4    7    1        -0.4089117420E-02      0.1117687667E-01

    ------------------------------------------------
       NWT REQUIRED            3 OUTER ITERATIONS 
       AND A TOTAL OF          5 INNER ITERATIONS.
    ------------------------------------------------

 OUTPUT CONTROL FOR STRESS PERIOD    5   TIME STEP    8
    PRINT BUDGET
    SAVE BUDGET
 UBDSV1 SAVING "         STORAGE" ON UNIT 102 AT TIME STEP  8, STRESS PERIOD   5
 UBDSV2 SAVING "   CONSTANT HEAD" ON UNIT 102 AT TIME STEP  8, STRESS PERIOD   5
 UBDSV1 SAVING "FLOW RIGHT FACE " ON UNIT 102 AT TIME STEP  8, STRESS PERIOD   5
 UBDSV1 SAVING "FLOW FRONT FACE " ON UNIT 102 AT TIME STEP  8, STRESS PERIOD   5

  HEAD DEP BOUNDS   PERIOD    5   STEP     8
 BOUNDARY      1   LAYER   1   ROW    13   COL     1   RATE   -0.295503    
 BOUNDARY      2   LAYER   1   ROW    14   COL     9   RATE    0.285475    



 STREAM LISTING     PERIOD      5   STEP        8

 LAYER ROW COL. STREAM  RCH.  FLOW INTO     FLOW TO   FLOW OUT OF   OVRLND.     DIRECT     STREAM       STREAM     STREAM     STREAM   STREAMBED  STREAMBED
                SEG.NO.  NO.  STRM. RCH.    AQUIFER    STRM. RCH.    RUNOFF     PRECIP       ET          HEAD       DEPTH      WIDTH   CONDCTNC.   GRADIENT

   1    1    1     1     1    2.8000E+01  2.5860E-01   2.7742E+01  0.000E+00  0.000E+00  0.000E+00  1.09427E+03  1.221E+00  1.361E+01  6.126E-02  1.407E+00
   1    2    2     1     2    2.7742E+01  4.0002E-01   2.7341E+01  0.000E+00  0.000E+00  0.000E+00  1.08928E+03  1.217E+00  1.355E+01  9.487E-02  1.406E+00
   1    3    3     1     3    2.7341E+01  3.4070E-01   2.7001E+01  0.000E+00  0.000E+00  0.000E+00  1.08363E+03  1.212E+00  1.348E+01  8.090E-02  1.404E+00
   1    3    4     1     4    2.7001E+01  3.1335E-01   2.6687E+01  0.000E+00  0.000E+00  0.000E+00  1.07861E+03  1.207E+00  1.342E+01  7.448E-02  1.402E+00
   1    4    5     2     1    2.4687E+01  3.2711E-01   2.4360E+01  0.000E+00  0.000E+00  0.000E+00  1.07313E+03  1.194E+00  1.200E+01  7.800E-02  1.398E+00
   1    5    6     2     2    2.4360E+01  2.5111E-01   2.4109E+01  0.000E+00  0.000E+00  0.000E+00  1.06769E+03  1.185E+00  1.200E+01  6.000E-02  1.395E+00
   1    6    6     2     3    2.4109E+01  2.5067E-01   2.3859E+01  0.000E+00  0.000E+00  0.000E+00  1.06297E+03  1.178E+00  1.200E+01  6.000E-02  1.393E+00
   1    7    6     2     4    2.3859E+01  2.5023E-01   2.3608E+01  0.000E+00  0.000E+00  0.000E+00  1.05825E+03  1.170E+00  1.200E+01  6.000E-02  1.390E+00
   1    8    6     2     5    2.3608E+01  2.4978E-01   2.3359E+01  0.000E+00  0.000E+00  0.000E+00  1.05352E+03  1.163E+00  1.200E+01  6.000E-02  1.388E+00
   1    3    5     3     1    2.0000E+00  2.8252E-01   1.7175E+00  0.000E+00  0.000E+00  0.000E+00  1.07555E+03  1.909E+00  9.636E+00  7.227E-02  1.955E+00
   1    3    6     3     2    1.7175E+00  2.4905E-01   1.4684E+00  0.000E+00  0.000E+00  0.000E+00  1.07264E+03  1.727E+00  8.909E+00  6.682E-02  1.864E+00
   1    3    7     3     3    1.4684E+00  1.9718E-01   1.2712E+00  0.000E+00  0.000E+00  0.000E+00  1.06987E+03  1.555E+00  8.218E+00  5.547E-02  1.777E+00
   1    4    8     3     4    1.2712E+00  2.2567E-01   1.0456E+00  0.000E+00  0.000E+00  0.000E+00  1.06682E+03  1.364E+00  7.455E+00  6.709E-02  1.682E+00
   1    5    8     3     5    1.0456E+00  1.5790E-01   8.8768E-01  0.000E+00  0.000E+00  0.000E+00  1.06362E+03  1.164E+00  6.655E+00  4.991E-02  1.582E+00
   1    6    8     3     6    8.8768E-01  5.5980E-02   8.3170E-01  0.000E+00  0.000E+00  0.000E+00  1.06158E+03  1.036E+00  6.145E+00  1.844E-02  1.518E+00
   1    5   10     4     1    1.0000E+01  9.0919E-02   9.9091E+00  0.000E+00  0.000E+00  0.000E+00  1.07836E+03  6.368E-01  1.000E+01  2.500E-02  1.212E+00
   1    5    9     4     2    9.9091E+00  1.8158E-01   9.7275E+00  0.000E+00  0.000E+00  0.000E+00  1.07154E+03  6.315E-01  1.000E+01  5.000E-02  1.211E+00
   1    6    8     4     3    9.7275E+00  1.2689E-01   9.6006E+00  0.000E+00  0.000E+00  0.000E+00  1.06381E+03  6.256E-01  1.000E+01  3.500E-02  1.209E+00
   1    6    8     5     1    1.0432E+01  2.2686E-01   1.0205E+01  0.000E+00  0.000E+00  0.000E+00  1.05868E+03  6.790E-01  1.542E+01  6.166E-02  1.226E+00
   1    7    7     5     2    1.0205E+01  2.7894E-01   9.9265E+00  0.000E+00  0.000E+00  0.000E+00  1.05417E+03  6.732E-01  1.519E+01  7.594E-02  1.224E+00
   1    8    7     5     3    9.9265E+00  1.9221E-01   9.7343E+00  0.000E+00  0.000E+00  0.000E+00  1.04992E+03  6.676E-01  1.497E+01  5.241E-02  1.223E+00
   1    8    6     5     4    9.7343E+00  1.3577E-01   9.5985E+00  0.000E+00  0.000E+00  0.000E+00  1.04691E+03  6.637E-01  1.482E+01  3.706E-02  1.221E+00
   1    9    6     6     1    3.2957E+01  2.6627E-01   3.2691E+01  0.000E+00  0.000E+00  0.000E+00  1.04417E+03  1.438E+00  1.200E+01  6.000E-02  1.479E+00
   1   10    7     6     2    3.2691E+01  2.6585E-01   3.2425E+01  0.000E+00  0.000E+00  0.000E+00  1.03961E+03  1.431E+00  1.200E+01  6.000E-02  1.477E+00
   1   11    7     6     3    3.2425E+01  2.6542E-01   3.2160E+01  0.000E+00  0.000E+00  0.000E+00  1.03506E+03  1.424E+00  1.200E+01  6.000E-02  1.475E+00
   1   12    7     6     4    3.2160E+01  2.6500E-01   3.1895E+01  0.000E+00  0.000E+00  0.000E+00  1.03051E+03  1.417E+00  1.200E+01  6.000E-02  1.472E+00
   1   13    7     6     5    3.1895E+01  3.4439E-03   3.1891E+01  0.000E+00  0.000E+00  0.000E+00  1.02732E+03  1.413E+00  1.200E+01  2.400E-02  4.783E-02
   1   14    9     7     1    1.5000E+02  1.3317E+00   1.4867E+02  0.000E+00  0.000E+00  0.000E+00  1.03987E+03  2.288E+00  5.529E+01  5.593E-01  7.936E-01
   1   13    8     7     2    1.4867E+02  1.8136E+00   1.4685E+02  0.000E+00  0.000E+00  0.000E+00  1.03478E+03  2.279E+00  5.526E+01  6.148E-01  9.833E-01
   1   13    7     7     3    1.4685E+02  1.4025E+00   1.4545E+02  0.000E+00  0.000E+00  0.000E+00  1.02969E+03  2.271E+00  5.522E+01  5.585E-01  8.371E-01
   1   13    6     8     1    1.7734E+02  8.5998E-01   1.7648E+02  0.000E+00  0.000E+00  0.000E+00  1.02487E+03  2.997E+00  4.345E+01  4.428E-01  6.474E-01
   1   13    5     8     2    1.7648E+02  9.5258E-02   1.7639E+02  0.000E+00  0.000E+00  0.000E+00  1.01862E+03  2.994E+00  4.341E+01  4.423E-01  7.178E-02
   1   13    4     8     3    1.7639E+02 -2.9725E+00   1.7936E+02  0.000E+00  0.000E+00  0.000E+00  1.01238E+03  3.003E+00  4.354E+01  4.437E+00 -2.233E-01
   1   13    3     8     4    1.7936E+02 -4.0806E+00   1.8344E+02  0.000E+00  0.000E+00  0.000E+00  1.00615E+03  3.025E+00  4.386E+01  4.470E+00 -3.043E-01
   1   13    2     8     5    1.8344E+02 -3.0368E+00   1.8648E+02  0.000E+00  0.000E+00  0.000E+00  9.99922E+02  3.047E+00  4.418E+01  4.502E+00 -2.248E-01
   1   13    1     8     6    1.8648E+02 -2.2759E+00   1.8875E+02  0.000E+00  0.000E+00  0.000E+00  9.94938E+02  3.063E+00  4.442E+01  2.716E+00 -2.793E-01



 UBDSV3 SAVING "           GW ET" ON UNIT  61 AT TIME STEP  8, STRESS PERIOD   5
 UBDSV3 SAVING "    UZF RECHARGE" ON UNIT  61 AT TIME STEP  8, STRESS PERIOD   5
 UBDSV3 SAVING " SURFACE LEAKAGE" ON UNIT  61 AT TIME STEP  8, STRESS PERIOD   5
 UBDSV3 SAVING "       HORT+DUNN" ON UNIT  61 AT TIME STEP  8, STRESS PERIOD   5
 UBDSV3 SAVING "  STORAGE CHANGE" ON UNIT  61 AT TIME STEP  8, STRESS PERIOD   5


UNSATURATED ZONE PACKAGE VOLUMETRIC BUDGET FOR  TIME STEP     8 STRESS PERIOD    5
  ------------------------------------------------------------------------------



     CUMULATIVE VOLUMES      L**3       RATES FOR THIS TIME STEP      L**3/T
     ------------------                 ------------------------

           IN:                                      IN:
           ---                                      ---
        INFILTRATION =     9963430.6634          INFILTRATION =           4.5675

          OUT:                                     OUT:
          ----                                     ----
              UZF ET =     9889529.4921                UZF ET =           4.5675
        UZF RECHARGE =       73224.0000          UZF RECHARGE =       0.0000E+00

            IN - OUT =         677.1713              IN - OUT =       0.0000E+00

          STORAGE:                                 STORAGE:
          --------                                 --------
      STORAGE CHANGE =         677.2369        STORAGE CHANGE =       8.4372E-15

 PERCENT DISCREPANCY IS DIFFERENCE BETWEEN IN-OUT MINUS CHANGE IN STORAGE
 DIVIDED BY THE AVERAGE OF IN AND OUT TIMES 100

 PERCENT DISCREPANCY =           0.00     PERCENT DISCREPANCY =           0.00






 

            AG WELLS      PERIOD    5   STEP   8
 AG WELL      1   LAYER   1   ROW     6   COL     4   RATE   -0.620000    
 AG WELL      2   LAYER   1   ROW     6   COL     5   RATE   -0.620000    
 AG WELL      3   LAYER   1   ROW     7   COL     4   RATE   -0.620000    
 AG WELL      4   LAYER   1   ROW     7   COL     5   RATE   -0.620000    
 AG WELL      5   LAYER   1   ROW     8   COL     4   RATE   -0.620000    
 AG WELL      6   LAYER   1   ROW     8   COL     5   RATE   -0.620000    
 
 

        GW IRRIGATION     PERIOD    5   STEP   8
 AG WELL      1   ROW     6   COL     4   RATE    0.620000    
 AG WELL      2   ROW     6   COL     5   RATE    0.620000    
 AG WELL      3   ROW     7   COL     4   RATE    0.620000    
 AG WELL      4   ROW     7   COL     5   RATE    0.620000    
 AG WELL      5   ROW     8   COL     4   RATE    0.620000    
 AG WELL      6   ROW     8   COL     5   RATE    0.620000    
 
1
  VOLUMETRIC BUDGET FOR AGRICULTURAL FIELDS AT  END OF TIME STEP    8, STRESS PERIOD   5
  ------------------------------------------------------------------------------

     CUMULATIVE VOLUMES      L**3       RATES FOR THIS TIME STEP      L**3/T
     ------------------                 ------------------------

           IN:                                      IN:
           ---                                      ---
               AG WELLS  =     2609052.2500                 AG WELLS  =           3.7200
      DIVERSION SEGMENTS =           0.0000        DIVERSION SEGMENTS =           0.0000
           GW IRRIGATION =           0.0000             GW IRRIGATION =           0.0000
           SW IRRIGATION =           0.0000             SW IRRIGATION =           0.0000
        SYSTEM LOSSES GW =           0.0000          SYSTEM LOSSES GW =           0.0000
        SYSTEM LOSSES SW =           0.0000          SYSTEM LOSSES SW =           0.0000

                TOTAL IN =     2609052.2500                  TOTAL IN =           3.7200

          OUT:                                     OUT:
          ----                                     ----
               AG WELLS  =           0.0000                 AG WELLS  =           0.0000
      DIVERSION SEGMENTS =           0.0000        DIVERSION SEGMENTS =           0.0000
           GW IRRIGATION =     2609052.2500             GW IRRIGATION =           3.7200
           SW IRRIGATION =           0.0000             SW IRRIGATION =           0.0000
        SYSTEM LOSSES GW =           0.0000          SYSTEM LOSSES GW =           0.0000
        SYSTEM LOSSES SW =           0.0000          SYSTEM LOSSES SW =           0.0000

               TOTAL OUT =     2609052.2500                 TOTAL OUT =           3.7200

                IN - OUT =           0.0000                  IN - OUT =           0.0000

     PERCENT DISCREPANCY =           0.00         PERCENT DISCREPANCY =           0.00



1
  VOLUMETRIC BUDGET FOR ENTIRE MODEL AT END OF TIME STEP    8, STRESS PERIOD   5
  ------------------------------------------------------------------------------

     CUMULATIVE VOLUMES      L**3       RATES FOR THIS TIME STEP      L**3/T
     ------------------                 ------------------------

           IN:                                      IN:
           ---                                      ---
             STORAGE     =     8848682.0000               STORAGE     =           5.8117
       CONSTANT HEAD     =           0.0000         CONSTANT HEAD     =           0.0000
     HEAD DEP BOUNDS     =     2476833.5000       HEAD DEP BOUNDS     =           0.2855
      STREAM LEAKAGE     =   107116040.0000        STREAM LEAKAGE     =          11.6120
        UZF RECHARGE     =       73223.9531          UZF RECHARGE     =           0.0000
               GW ET     =           0.0000                 GW ET     =           0.0000
     SURFACE LEAKAGE     =           0.0000       SURFACE LEAKAGE     =           0.0000
           AG WELLS      =           0.0000             AG WELLS      =           0.0000

                TOTAL IN =   118514776.0000                  TOTAL IN =          17.7092

          OUT:                                     OUT:
          ----                                     ----
             STORAGE     =    23300758.0000               STORAGE     =           1.1894
       CONSTANT HEAD     =           0.0000         CONSTANT HEAD     =           0.0000
     HEAD DEP BOUNDS     =     2535512.7500       HEAD DEP BOUNDS     =           0.2955
      STREAM LEAKAGE     =    89909288.0000        STREAM LEAKAGE     =          12.3658
        UZF RECHARGE     =           0.0000          UZF RECHARGE     =           0.0000
               GW ET     =      164574.2812                 GW ET     =           0.1372
     SURFACE LEAKAGE     =           0.0000       SURFACE LEAKAGE     =           0.0000
           AG WELLS      =     2609052.2500             AG WELLS      =           3.7200

               TOTAL OUT =   118519192.0000                 TOTAL OUT =          17.7079

                IN - OUT =       -4416.0000                  IN - OUT =       1.3332E-03

     PERCENT DISCREPANCY =          -0.00         PERCENT DISCREPANCY =           0.01






         TIME SUMMARY AT END OF TIME STEP    8 IN STRESS PERIOD    5
                    SECONDS     MINUTES      HOURS       DAYS        YEARS
                    -----------------------------------------------------------
   TIME STEP LENGTH  87667.      1461.1      24.352      1.0147     2.77799E-03
 STRESS PERIOD TIME 7.01333E+05  11689.      194.81      8.1173     2.22239E-02
         TOTAL TIME 8.67773E+06 1.44629E+05  2410.5      100.44     0.27498    
1
 
 SOLVING FOR HEAD 
                                                   Max.-Head-Change                         Max.-Flux-Residual
  Residual-Control   Outer-Iter.   Inner-Iter.     Column Row Layer    Maximum-Head-Change  Column Row Layer    Maximum-Flux-Residual          L2-NORM 
          0                 1           2             4    7     1      -0.1106459640E-01       4    7    1        -0.5796010837E+00      0.1567735321E+01
          0                 2           2             4    7     1       0.1076281909E-02       4    7    1         0.5796000487E-01      0.1556041216E+00
          0                 3           1             4    7     1      -0.7329082388E-04       4    7    1        -0.4057203075E-02      0.1078435150E-01

    ------------------------------------------------
       NWT REQUIRED            3 OUTER ITERATIONS 
       AND A TOTAL OF          5 INNER ITERATIONS.
    ------------------------------------------------

 OUTPUT CONTROL FOR STRESS PERIOD    5   TIME STEP    9
    PRINT BUDGET
    SAVE BUDGET
 UBDSV1 SAVING "         STORAGE" ON UNIT 102 AT TIME STEP  9, STRESS PERIOD   5
 UBDSV2 SAVING "   CONSTANT HEAD" ON UNIT 102 AT TIME STEP  9, STRESS PERIOD   5
 UBDSV1 SAVING "FLOW RIGHT FACE " ON UNIT 102 AT TIME STEP  9, STRESS PERIOD   5
 UBDSV1 SAVING "FLOW FRONT FACE " ON UNIT 102 AT TIME STEP  9, STRESS PERIOD   5

  HEAD DEP BOUNDS   PERIOD    5   STEP     9
 BOUNDARY      1   LAYER   1   ROW    13   COL     1   RATE   -0.295303    
 BOUNDARY      2   LAYER   1   ROW    14   COL     9   RATE    0.285476    



 STREAM LISTING     PERIOD      5   STEP        9

 LAYER ROW COL. STREAM  RCH.  FLOW INTO     FLOW TO   FLOW OUT OF   OVRLND.     DIRECT     STREAM       STREAM     STREAM     STREAM   STREAMBED  STREAMBED
                SEG.NO.  NO.  STRM. RCH.    AQUIFER    STRM. RCH.    RUNOFF     PRECIP       ET          HEAD       DEPTH      WIDTH   CONDCTNC.   GRADIENT

   1    1    1     1     1    2.8000E+01  2.5860E-01   2.7742E+01  0.000E+00  0.000E+00  0.000E+00  1.09427E+03  1.221E+00  1.361E+01  6.126E-02  1.407E+00
   1    2    2     1     2    2.7742E+01  4.0002E-01   2.7341E+01  0.000E+00  0.000E+00  0.000E+00  1.08928E+03  1.217E+00  1.355E+01  9.487E-02  1.406E+00
   1    3    3     1     3    2.7341E+01  3.4070E-01   2.7001E+01  0.000E+00  0.000E+00  0.000E+00  1.08363E+03  1.212E+00  1.348E+01  8.090E-02  1.404E+00
   1    3    4     1     4    2.7001E+01  3.1335E-01   2.6687E+01  0.000E+00  0.000E+00  0.000E+00  1.07861E+03  1.207E+00  1.342E+01  7.448E-02  1.402E+00
   1    4    5     2     1    2.4687E+01  3.2711E-01   2.4360E+01  0.000E+00  0.000E+00  0.000E+00  1.07313E+03  1.194E+00  1.200E+01  7.800E-02  1.398E+00
   1    5    6     2     2    2.4360E+01  2.5111E-01   2.4109E+01  0.000E+00  0.000E+00  0.000E+00  1.06769E+03  1.185E+00  1.200E+01  6.000E-02  1.395E+00
   1    6    6     2     3    2.4109E+01  2.5067E-01   2.3859E+01  0.000E+00  0.000E+00  0.000E+00  1.06297E+03  1.178E+00  1.200E+01  6.000E-02  1.393E+00
   1    7    6     2     4    2.3859E+01  2.5023E-01   2.3608E+01  0.000E+00  0.000E+00  0.000E+00  1.05825E+03  1.170E+00  1.200E+01  6.000E-02  1.390E+00
   1    8    6     2     5    2.3608E+01  2.4978E-01   2.3359E+01  0.000E+00  0.000E+00  0.000E+00  1.05352E+03  1.163E+00  1.200E+01  6.000E-02  1.388E+00
   1    3    5     3     1    2.0000E+00  2.8252E-01   1.7175E+00  0.000E+00  0.000E+00  0.000E+00  1.07555E+03  1.909E+00  9.636E+00  7.227E-02  1.955E+00
   1    3    6     3     2    1.7175E+00  2.4905E-01   1.4684E+00  0.000E+00  0.000E+00  0.000E+00  1.07264E+03  1.727E+00  8.909E+00  6.682E-02  1.864E+00
   1    3    7     3     3    1.4684E+00  1.9718E-01   1.2712E+00  0.000E+00  0.000E+00  0.000E+00  1.06987E+03  1.555E+00  8.218E+00  5.547E-02  1.777E+00
   1    4    8     3     4    1.2712E+00  2.2567E-01   1.0456E+00  0.000E+00  0.000E+00  0.000E+00  1.06682E+03  1.364E+00  7.455E+00  6.709E-02  1.682E+00
   1    5    8     3     5    1.0456E+00  1.5790E-01   8.8768E-01  0.000E+00  0.000E+00  0.000E+00  1.06362E+03  1.164E+00  6.655E+00  4.991E-02  1.582E+00
   1    6    8     3     6    8.8768E-01  5.5980E-02   8.3170E-01  0.000E+00  0.000E+00  0.000E+00  1.06158E+03  1.036E+00  6.145E+00  1.844E-02  1.518E+00
   1    5   10     4     1    1.0000E+01  9.0919E-02   9.9091E+00  0.000E+00  0.000E+00  0.000E+00  1.07836E+03  6.368E-01  1.000E+01  2.500E-02  1.212E+00
   1    5    9     4     2    9.9091E+00  1.8158E-01   9.7275E+00  0.000E+00  0.000E+00  0.000E+00  1.07154E+03  6.315E-01  1.000E+01  5.000E-02  1.211E+00
   1    6    8     4     3    9.7275E+00  1.2689E-01   9.6006E+00  0.000E+00  0.000E+00  0.000E+00  1.06381E+03  6.256E-01  1.000E+01  3.500E-02  1.209E+00
   1    6    8     5     1    1.0432E+01  2.2686E-01   1.0205E+01  0.000E+00  0.000E+00  0.000E+00  1.05868E+03  6.790E-01  1.542E+01  6.166E-02  1.226E+00
   1    7    7     5     2    1.0205E+01  2.7894E-01   9.9265E+00  0.000E+00  0.000E+00  0.000E+00  1.05417E+03  6.732E-01  1.519E+01  7.594E-02  1.224E+00
   1    8    7     5     3    9.9265E+00  1.9221E-01   9.7343E+00  0.000E+00  0.000E+00  0.000E+00  1.04992E+03  6.676E-01  1.497E+01  5.241E-02  1.223E+00
   1    8    6     5     4    9.7343E+00  1.3577E-01   9.5985E+00  0.000E+00  0.000E+00  0.000E+00  1.04691E+03  6.637E-01  1.482E+01  3.706E-02  1.221E+00
   1    9    6     6     1    3.2957E+01  2.6627E-01   3.2691E+01  0.000E+00  0.000E+00  0.000E+00  1.04417E+03  1.438E+00  1.200E+01  6.000E-02  1.479E+00
   1   10    7     6     2    3.2691E+01  2.6585E-01   3.2425E+01  0.000E+00  0.000E+00  0.000E+00  1.03961E+03  1.431E+00  1.200E+01  6.000E-02  1.477E+00
   1   11    7     6     3    3.2425E+01  2.6542E-01   3.2160E+01  0.000E+00  0.000E+00  0.000E+00  1.03506E+03  1.424E+00  1.200E+01  6.000E-02  1.475E+00
   1   12    7     6     4    3.2160E+01  2.6500E-01   3.1895E+01  0.000E+00  0.000E+00  0.000E+00  1.03051E+03  1.417E+00  1.200E+01  6.000E-02  1.472E+00
   1   13    7     6     5    3.1895E+01  3.4365E-03   3.1891E+01  0.000E+00  0.000E+00  0.000E+00  1.02732E+03  1.413E+00  1.200E+01  2.400E-02  4.773E-02
   1   14    9     7     1    1.5000E+02  1.3317E+00   1.4867E+02  0.000E+00  0.000E+00  0.000E+00  1.03987E+03  2.288E+00  5.529E+01  5.593E-01  7.936E-01
   1   13    8     7     2    1.4867E+02  1.8134E+00   1.4685E+02  0.000E+00  0.000E+00  0.000E+00  1.03478E+03  2.279E+00  5.526E+01  6.148E-01  9.832E-01
   1   13    7     7     3    1.4685E+02  1.4024E+00   1.4545E+02  0.000E+00  0.000E+00  0.000E+00  1.02969E+03  2.271E+00  5.522E+01  5.585E-01  8.370E-01
   1   13    6     8     1    1.7734E+02  8.6053E-01   1.7648E+02  0.000E+00  0.000E+00  0.000E+00  1.02487E+03  2.997E+00  4.345E+01  4.428E-01  6.478E-01
   1   13    5     8     2    1.7648E+02  9.5861E-02   1.7639E+02  0.000E+00  0.000E+00  0.000E+00  1.01862E+03  2.994E+00  4.341E+01  4.423E-01  7.224E-02
   1   13    4     8     3    1.7639E+02 -2.9433E+00   1.7933E+02  0.000E+00  0.000E+00  0.000E+00  1.01238E+03  3.003E+00  4.354E+01  4.437E+00 -2.211E-01
   1   13    3     8     4    1.7933E+02 -4.0508E+00   1.8338E+02  0.000E+00  0.000E+00  0.000E+00  1.00615E+03  3.025E+00  4.386E+01  4.469E+00 -3.021E-01
   1   13    2     8     5    1.8338E+02 -3.0039E+00   1.8639E+02  0.000E+00  0.000E+00  0.000E+00  9.99922E+02  3.047E+00  4.418E+01  4.502E+00 -2.224E-01
   1   13    1     8     6    1.8639E+02 -2.2628E+00   1.8865E+02  0.000E+00  0.000E+00  0.000E+00  9.94938E+02  3.063E+00  4.441E+01  2.715E+00 -2.778E-01



 UBDSV3 SAVING "           GW ET" ON UNIT  61 AT TIME STEP  9, STRESS PERIOD   5
 UBDSV3 SAVING "    UZF RECHARGE" ON UNIT  61 AT TIME STEP  9, STRESS PERIOD   5
 UBDSV3 SAVING " SURFACE LEAKAGE" ON UNIT  61 AT TIME STEP  9, STRESS PERIOD   5
 UBDSV3 SAVING "       HORT+DUNN" ON UNIT  61 AT TIME STEP  9, STRESS PERIOD   5
 UBDSV3 SAVING "  STORAGE CHANGE" ON UNIT  61 AT TIME STEP  9, STRESS PERIOD   5


UNSATURATED ZONE PACKAGE VOLUMETRIC BUDGET FOR  TIME STEP     9 STRESS PERIOD    5
  ------------------------------------------------------------------------------



     CUMULATIVE VOLUMES      L**3       RATES FOR THIS TIME STEP      L**3/T
     ------------------                 ------------------------

           IN:                                      IN:
           ---                                      ---
        INFILTRATION =    10363848.1436          INFILTRATION =           4.5675

          OUT:                                     OUT:
          ----                                     ----
              UZF ET =    10289946.9723                UZF ET =           4.5675
        UZF RECHARGE =       73224.0000          UZF RECHARGE =       0.0000E+00

            IN - OUT =         677.1713              IN - OUT =       0.0000E+00

          STORAGE:                                 STORAGE:
          --------                                 --------
      STORAGE CHANGE =         677.2369        STORAGE CHANGE =       8.4384E-15

 PERCENT DISCREPANCY IS DIFFERENCE BETWEEN IN-OUT MINUS CHANGE IN STORAGE
 DIVIDED BY THE AVERAGE OF IN AND OUT TIMES 100

 PERCENT DISCREPANCY =           0.00     PERCENT DISCREPANCY =           0.00






 

            AG WELLS      PERIOD    5   STEP   9
 AG WELL      1   LAYER   1   ROW     6   COL     4   RATE   -0.620000    
 AG WELL      2   LAYER   1   ROW     6   COL     5   RATE   -0.620000    
 AG WELL      3   LAYER   1   ROW     7   COL     4   RATE   -0.620000    
 AG WELL      4   LAYER   1   ROW     7   COL     5   RATE   -0.620000    
 AG WELL      5   LAYER   1   ROW     8   COL     4   RATE   -0.620000    
 AG WELL      6   LAYER   1   ROW     8   COL     5   RATE   -0.620000    
 
 

        GW IRRIGATION     PERIOD    5   STEP   9
 AG WELL      1   ROW     6   COL     4   RATE    0.620000    
 AG WELL      2   ROW     6   COL     5   RATE    0.620000    
 AG WELL      3   ROW     7   COL     4   RATE    0.620000    
 AG WELL      4   ROW     7   COL     5   RATE    0.620000    
 AG WELL      5   ROW     8   COL     4   RATE    0.620000    
 AG WELL      6   ROW     8   COL     5   RATE    0.620000    
 
1
  VOLUMETRIC BUDGET FOR AGRICULTURAL FIELDS AT  END OF TIME STEP    9, STRESS PERIOD   5
  ------------------------------------------------------------------------------

     CUMULATIVE VOLUMES      L**3       RATES FOR THIS TIME STEP      L**3/T
     ------------------                 ------------------------

           IN:                                      IN:
           ---                                      ---
               AG WELLS  =     2935172.2500                 AG WELLS  =           3.7200
      DIVERSION SEGMENTS =           0.0000        DIVERSION SEGMENTS =           0.0000
           GW IRRIGATION =           0.0000             GW IRRIGATION =           0.0000
           SW IRRIGATION =           0.0000             SW IRRIGATION =           0.0000
        SYSTEM LOSSES GW =           0.0000          SYSTEM LOSSES GW =           0.0000
        SYSTEM LOSSES SW =           0.0000          SYSTEM LOSSES SW =           0.0000

                TOTAL IN =     2935172.2500                  TOTAL IN =           3.7200

          OUT:                                     OUT:
          ----                                     ----
               AG WELLS  =           0.0000                 AG WELLS  =           0.0000
      DIVERSION SEGMENTS =           0.0000        DIVERSION SEGMENTS =           0.0000
           GW IRRIGATION =     2935172.2500             GW IRRIGATION =           3.7200
           SW IRRIGATION =           0.0000             SW IRRIGATION =           0.0000
        SYSTEM LOSSES GW =           0.0000          SYSTEM LOSSES GW =           0.0000
        SYSTEM LOSSES SW =           0.0000          SYSTEM LOSSES SW =           0.0000

               TOTAL OUT =     2935172.2500                 TOTAL OUT =           3.7200

                IN - OUT =           0.0000                  IN - OUT =           0.0000

     PERCENT DISCREPANCY =           0.00         PERCENT DISCREPANCY =           0.00



1
  VOLUMETRIC BUDGET FOR ENTIRE MODEL AT END OF TIME STEP    9, STRESS PERIOD   5
  ------------------------------------------------------------------------------

     CUMULATIVE VOLUMES      L**3       RATES FOR THIS TIME STEP      L**3/T
     ------------------                 ------------------------

           IN:                                      IN:
           ---                                      ---
             STORAGE     =     9344774.0000               STORAGE     =           5.6588
       CONSTANT HEAD     =           0.0000         CONSTANT HEAD     =           0.0000
     HEAD DEP BOUNDS     =     2501860.2500       HEAD DEP BOUNDS     =           0.2855
      STREAM LEAKAGE     =   108134104.0000        STREAM LEAKAGE     =          11.6129
        UZF RECHARGE     =       73223.9531          UZF RECHARGE     =           0.0000
               GW ET     =           0.0000                 GW ET     =           0.0000
     SURFACE LEAKAGE     =           0.0000       SURFACE LEAKAGE     =           0.0000
           AG WELLS      =           0.0000             AG WELLS      =           0.0000

                TOTAL IN =   120053960.0000                  TOTAL IN =          17.5572

          OUT:                                     OUT:
          ----                                     ----
             STORAGE     =    23402406.0000               STORAGE     =           1.1595
       CONSTANT HEAD     =           0.0000         CONSTANT HEAD     =           0.0000
     HEAD DEP BOUNDS     =     2561401.0000       HEAD DEP BOUNDS     =           0.2953
      STREAM LEAKAGE     =    90984144.0000        STREAM LEAKAGE     =          12.2607
        UZF RECHARGE     =           0.0000          UZF RECHARGE     =           0.0000
               GW ET     =      175128.7500                 GW ET     =           0.1204
     SURFACE LEAKAGE     =           0.0000       SURFACE LEAKAGE     =           0.0000
           AG WELLS      =     2935172.2500             AG WELLS      =           3.7200

               TOTAL OUT =   120058256.0000                 TOTAL OUT =          17.5559

                IN - OUT =       -4296.0000                  IN - OUT =       1.2970E-03

     PERCENT DISCREPANCY =          -0.00         PERCENT DISCREPANCY =           0.01






         TIME SUMMARY AT END OF TIME STEP    9 IN STRESS PERIOD    5
                    SECONDS     MINUTES      HOURS       DAYS        YEARS
                    -----------------------------------------------------------
   TIME STEP LENGTH  87667.      1461.1      24.352      1.0147     2.77799E-03
 STRESS PERIOD TIME 7.89000E+05  13150.      219.17      9.1319     2.50019E-02
         TOTAL TIME 8.76540E+06 1.46090E+05  2434.8      101.45     0.27776    
1
 
 SOLVING FOR HEAD 
                                                   Max.-Head-Change                         Max.-Flux-Residual
  Residual-Control   Outer-Iter.   Inner-Iter.     Column Row Layer    Maximum-Head-Change  Column Row Layer    Maximum-Flux-Residual          L2-NORM 
          0                 1           2             4    7     1      -0.1097202411E-01       4    7    1        -0.5749061394E+00      0.1514245698E+01
          0                 2           2             4    7     1       0.1067277109E-02       4    7    1         0.5749050751E-01      0.1504112393E+00
          0                 3           1             4    7     1      -0.7267763112E-04       4    7    1        -0.4024338274E-02      0.1043535020E-01

    ------------------------------------------------
       NWT REQUIRED            3 OUTER ITERATIONS 
       AND A TOTAL OF          5 INNER ITERATIONS.
    ------------------------------------------------

 OUTPUT CONTROL FOR STRESS PERIOD    5   TIME STEP   10
    PRINT BUDGET
    SAVE BUDGET
 UBDSV1 SAVING "         STORAGE" ON UNIT 102 AT TIME STEP 10, STRESS PERIOD   5
 UBDSV2 SAVING "   CONSTANT HEAD" ON UNIT 102 AT TIME STEP 10, STRESS PERIOD   5
 UBDSV1 SAVING "FLOW RIGHT FACE " ON UNIT 102 AT TIME STEP 10, STRESS PERIOD   5
 UBDSV1 SAVING "FLOW FRONT FACE " ON UNIT 102 AT TIME STEP 10, STRESS PERIOD   5

  HEAD DEP BOUNDS   PERIOD    5   STEP    10
 BOUNDARY      1   LAYER   1   ROW    13   COL     1   RATE   -0.295110    
 BOUNDARY      2   LAYER   1   ROW    14   COL     9   RATE    0.285477    



 STREAM LISTING     PERIOD      5   STEP       10

 LAYER ROW COL. STREAM  RCH.  FLOW INTO     FLOW TO   FLOW OUT OF   OVRLND.     DIRECT     STREAM       STREAM     STREAM     STREAM   STREAMBED  STREAMBED
                SEG.NO.  NO.  STRM. RCH.    AQUIFER    STRM. RCH.    RUNOFF     PRECIP       ET          HEAD       DEPTH      WIDTH   CONDCTNC.   GRADIENT

   1    1    1     1     1    2.8000E+01  2.5860E-01   2.7742E+01  0.000E+00  0.000E+00  0.000E+00  1.09427E+03  1.221E+00  1.361E+01  6.126E-02  1.407E+00
   1    2    2     1     2    2.7742E+01  4.0002E-01   2.7341E+01  0.000E+00  0.000E+00  0.000E+00  1.08928E+03  1.217E+00  1.355E+01  9.487E-02  1.406E+00
   1    3    3     1     3    2.7341E+01  3.4070E-01   2.7001E+01  0.000E+00  0.000E+00  0.000E+00  1.08363E+03  1.212E+00  1.348E+01  8.090E-02  1.404E+00
   1    3    4     1     4    2.7001E+01  3.1335E-01   2.6687E+01  0.000E+00  0.000E+00  0.000E+00  1.07861E+03  1.207E+00  1.342E+01  7.448E-02  1.402E+00
   1    4    5     2     1    2.4687E+01  3.2711E-01   2.4360E+01  0.000E+00  0.000E+00  0.000E+00  1.07313E+03  1.194E+00  1.200E+01  7.800E-02  1.398E+00
   1    5    6     2     2    2.4360E+01  2.5111E-01   2.4109E+01  0.000E+00  0.000E+00  0.000E+00  1.06769E+03  1.185E+00  1.200E+01  6.000E-02  1.395E+00
   1    6    6     2     3    2.4109E+01  2.5067E-01   2.3859E+01  0.000E+00  0.000E+00  0.000E+00  1.06297E+03  1.178E+00  1.200E+01  6.000E-02  1.393E+00
   1    7    6     2     4    2.3859E+01  2.5023E-01   2.3608E+01  0.000E+00  0.000E+00  0.000E+00  1.05825E+03  1.170E+00  1.200E+01  6.000E-02  1.390E+00
   1    8    6     2     5    2.3608E+01  2.4978E-01   2.3359E+01  0.000E+00  0.000E+00  0.000E+00  1.05352E+03  1.163E+00  1.200E+01  6.000E-02  1.388E+00
   1    3    5     3     1    2.0000E+00  2.8252E-01   1.7175E+00  0.000E+00  0.000E+00  0.000E+00  1.07555E+03  1.909E+00  9.636E+00  7.227E-02  1.955E+00
   1    3    6     3     2    1.7175E+00  2.4905E-01   1.4684E+00  0.000E+00  0.000E+00  0.000E+00  1.07264E+03  1.727E+00  8.909E+00  6.682E-02  1.864E+00
   1    3    7     3     3    1.4684E+00  1.9718E-01   1.2712E+00  0.000E+00  0.000E+00  0.000E+00  1.06987E+03  1.555E+00  8.218E+00  5.547E-02  1.777E+00
   1    4    8     3     4    1.2712E+00  2.2567E-01   1.0456E+00  0.000E+00  0.000E+00  0.000E+00  1.06682E+03  1.364E+00  7.455E+00  6.709E-02  1.682E+00
   1    5    8     3     5    1.0456E+00  1.5790E-01   8.8768E-01  0.000E+00  0.000E+00  0.000E+00  1.06362E+03  1.164E+00  6.655E+00  4.991E-02  1.582E+00
   1    6    8     3     6    8.8768E-01  5.5980E-02   8.3170E-01  0.000E+00  0.000E+00  0.000E+00  1.06158E+03  1.036E+00  6.145E+00  1.844E-02  1.518E+00
   1    5   10     4     1    1.0000E+01  9.0919E-02   9.9091E+00  0.000E+00  0.000E+00  0.000E+00  1.07836E+03  6.368E-01  1.000E+01  2.500E-02  1.212E+00
   1    5    9     4     2    9.9091E+00  1.8158E-01   9.7275E+00  0.000E+00  0.000E+00  0.000E+00  1.07154E+03  6.315E-01  1.000E+01  5.000E-02  1.211E+00
   1    6    8     4     3    9.7275E+00  1.2689E-01   9.6006E+00  0.000E+00  0.000E+00  0.000E+00  1.06381E+03  6.256E-01  1.000E+01  3.500E-02  1.209E+00
   1    6    8     5     1    1.0432E+01  2.2686E-01   1.0205E+01  0.000E+00  0.000E+00  0.000E+00  1.05868E+03  6.790E-01  1.542E+01  6.166E-02  1.226E+00
   1    7    7     5     2    1.0205E+01  2.7894E-01   9.9265E+00  0.000E+00  0.000E+00  0.000E+00  1.05417E+03  6.732E-01  1.519E+01  7.594E-02  1.224E+00
   1    8    7     5     3    9.9265E+00  1.9221E-01   9.7343E+00  0.000E+00  0.000E+00  0.000E+00  1.04992E+03  6.676E-01  1.497E+01  5.241E-02  1.223E+00
   1    8    6     5     4    9.7343E+00  1.3577E-01   9.5985E+00  0.000E+00  0.000E+00  0.000E+00  1.04691E+03  6.637E-01  1.482E+01  3.706E-02  1.221E+00
   1    9    6     6     1    3.2957E+01  2.6627E-01   3.2691E+01  0.000E+00  0.000E+00  0.000E+00  1.04417E+03  1.438E+00  1.200E+01  6.000E-02  1.479E+00
   1   10    7     6     2    3.2691E+01  2.6585E-01   3.2425E+01  0.000E+00  0.000E+00  0.000E+00  1.03961E+03  1.431E+00  1.200E+01  6.000E-02  1.477E+00
   1   11    7     6     3    3.2425E+01  2.6542E-01   3.2160E+01  0.000E+00  0.000E+00  0.000E+00  1.03506E+03  1.424E+00  1.200E+01  6.000E-02  1.475E+00
   1   12    7     6     4    3.2160E+01  2.6500E-01   3.1895E+01  0.000E+00  0.000E+00  0.000E+00  1.03051E+03  1.417E+00  1.200E+01  6.000E-02  1.472E+00
   1   13    7     6     5    3.1895E+01  3.4296E-03   3.1891E+01  0.000E+00  0.000E+00  0.000E+00  1.02732E+03  1.413E+00  1.200E+01  2.400E-02  4.763E-02
   1   14    9     7     1    1.5000E+02  1.3317E+00   1.4867E+02  0.000E+00  0.000E+00  0.000E+00  1.03987E+03  2.288E+00  5.529E+01  5.593E-01  7.937E-01
   1   13    8     7     2    1.4867E+02  1.8133E+00   1.4686E+02  0.000E+00  0.000E+00  0.000E+00  1.03478E+03  2.279E+00  5.526E+01  6.148E-01  9.832E-01
   1   13    7     7     3    1.4686E+02  1.4022E+00   1.4545E+02  0.000E+00  0.000E+00  0.000E+00  1.02969E+03  2.271E+00  5.522E+01  5.585E-01  8.369E-01
   1   13    6     8     1    1.7734E+02  8.6106E-01   1.7648E+02  0.000E+00  0.000E+00  0.000E+00  1.02487E+03  2.997E+00  4.345E+01  4.428E-01  6.482E-01
   1   13    5     8     2    1.7648E+02  9.6467E-02   1.7639E+02  0.000E+00  0.000E+00  0.000E+00  1.01862E+03  2.994E+00  4.341E+01  4.423E-01  7.269E-02
   1   13    4     8     3    1.7639E+02 -2.9173E+00   1.7930E+02  0.000E+00  0.000E+00  0.000E+00  1.01238E+03  3.003E+00  4.354E+01  4.437E+00 -2.192E-01
   1   13    3     8     4    1.7930E+02 -4.0239E+00   1.8333E+02  0.000E+00  0.000E+00  0.000E+00  1.00615E+03  3.024E+00  4.385E+01  4.469E+00 -3.001E-01
   1   13    2     8     5    1.8333E+02 -2.9734E+00   1.8630E+02  0.000E+00  0.000E+00  0.000E+00  9.99921E+02  3.046E+00  4.417E+01  4.501E+00 -2.202E-01
   1   13    1     8     6    1.8630E+02 -2.2501E+00   1.8855E+02  0.000E+00  0.000E+00  0.000E+00  9.94937E+02  3.062E+00  4.440E+01  2.715E+00 -2.763E-01



 UBDSV3 SAVING "           GW ET" ON UNIT  61 AT TIME STEP 10, STRESS PERIOD   5
 UBDSV3 SAVING "    UZF RECHARGE" ON UNIT  61 AT TIME STEP 10, STRESS PERIOD   5
 UBDSV3 SAVING " SURFACE LEAKAGE" ON UNIT  61 AT TIME STEP 10, STRESS PERIOD   5
 UBDSV3 SAVING "       HORT+DUNN" ON UNIT  61 AT TIME STEP 10, STRESS PERIOD   5
 UBDSV3 SAVING "  STORAGE CHANGE" ON UNIT  61 AT TIME STEP 10, STRESS PERIOD   5


UNSATURATED ZONE PACKAGE VOLUMETRIC BUDGET FOR  TIME STEP    10 STRESS PERIOD    5
  ------------------------------------------------------------------------------



     CUMULATIVE VOLUMES      L**3       RATES FOR THIS TIME STEP      L**3/T
     ------------------                 ------------------------

           IN:                                      IN:
           ---                                      ---
        INFILTRATION =    10764265.6239          INFILTRATION =           4.5675

          OUT:                                     OUT:
          ----                                     ----
              UZF ET =    10690364.4526                UZF ET =           4.5675
        UZF RECHARGE =       73224.0000          UZF RECHARGE =       0.0000E+00

            IN - OUT =         677.1713              IN - OUT =       0.0000E+00

          STORAGE:                                 STORAGE:
          --------                                 --------
      STORAGE CHANGE =         677.2369        STORAGE CHANGE =       8.4370E-15

 PERCENT DISCREPANCY IS DIFFERENCE BETWEEN IN-OUT MINUS CHANGE IN STORAGE
 DIVIDED BY THE AVERAGE OF IN AND OUT TIMES 100

 PERCENT DISCREPANCY =           0.00     PERCENT DISCREPANCY =           0.00






 

            AG WELLS      PERIOD    5   STEP  10
 AG WELL      1   LAYER   1   ROW     6   COL     4   RATE   -0.620000    
 AG WELL      2   LAYER   1   ROW     6   COL     5   RATE   -0.620000    
 AG WELL      3   LAYER   1   ROW     7   COL     4   RATE   -0.620000    
 AG WELL      4   LAYER   1   ROW     7   COL     5   RATE   -0.620000    
 AG WELL      5   LAYER   1   ROW     8   COL     4   RATE   -0.620000    
 AG WELL      6   LAYER   1   ROW     8   COL     5   RATE   -0.620000    
 
 

        GW IRRIGATION     PERIOD    5   STEP  10
 AG WELL      1   ROW     6   COL     4   RATE    0.620000    
 AG WELL      2   ROW     6   COL     5   RATE    0.620000    
 AG WELL      3   ROW     7   COL     4   RATE    0.620000    
 AG WELL      4   ROW     7   COL     5   RATE    0.620000    
 AG WELL      5   ROW     8   COL     4   RATE    0.620000    
 AG WELL      6   ROW     8   COL     5   RATE    0.620000    
 
1
  VOLUMETRIC BUDGET FOR AGRICULTURAL FIELDS AT  END OF TIME STEP   10, STRESS PERIOD   5
  ------------------------------------------------------------------------------

     CUMULATIVE VOLUMES      L**3       RATES FOR THIS TIME STEP      L**3/T
     ------------------                 ------------------------

           IN:                                      IN:
           ---                                      ---
               AG WELLS  =     3261292.2500                 AG WELLS  =           3.7200
      DIVERSION SEGMENTS =           0.0000        DIVERSION SEGMENTS =           0.0000
           GW IRRIGATION =           0.0000             GW IRRIGATION =           0.0000
           SW IRRIGATION =           0.0000             SW IRRIGATION =           0.0000
        SYSTEM LOSSES GW =           0.0000          SYSTEM LOSSES GW =           0.0000
        SYSTEM LOSSES SW =           0.0000          SYSTEM LOSSES SW =           0.0000

                TOTAL IN =     3261292.2500                  TOTAL IN =           3.7200

          OUT:                                     OUT:
          ----                                     ----
               AG WELLS  =           0.0000                 AG WELLS  =           0.0000
      DIVERSION SEGMENTS =           0.0000        DIVERSION SEGMENTS =           0.0000
           GW IRRIGATION =     3261292.2500             GW IRRIGATION =           3.7200
           SW IRRIGATION =           0.0000             SW IRRIGATION =           0.0000
        SYSTEM LOSSES GW =           0.0000          SYSTEM LOSSES GW =           0.0000
        SYSTEM LOSSES SW =           0.0000          SYSTEM LOSSES SW =           0.0000

               TOTAL OUT =     3261292.2500                 TOTAL OUT =           3.7200

                IN - OUT =           0.0000                  IN - OUT =           0.0000

     PERCENT DISCREPANCY =           0.00         PERCENT DISCREPANCY =           0.00



1
  VOLUMETRIC BUDGET FOR ENTIRE MODEL AT END OF TIME STEP   10, STRESS PERIOD   5
  ------------------------------------------------------------------------------

     CUMULATIVE VOLUMES      L**3       RATES FOR THIS TIME STEP      L**3/T
     ------------------                 ------------------------

           IN:                                      IN:
           ---                                      ---
             STORAGE     =     9828774.0000               STORAGE     =           5.5209
       CONSTANT HEAD     =           0.0000         CONSTANT HEAD     =           0.0000
     HEAD DEP BOUNDS     =     2526887.0000       HEAD DEP BOUNDS     =           0.2855
      STREAM LEAKAGE     =   109152240.0000        STREAM LEAKAGE     =          11.6137
        UZF RECHARGE     =       73223.9531          UZF RECHARGE     =           0.0000
               GW ET     =           0.0000                 GW ET     =           0.0000
     SURFACE LEAKAGE     =           0.0000       SURFACE LEAKAGE     =           0.0000
           AG WELLS      =           0.0000             AG WELLS      =           0.0000

                TOTAL IN =   121581128.0000                  TOTAL IN =          17.4201

          OUT:                                     OUT:
          ----                                     ----
             STORAGE     =    23501786.0000               STORAGE     =           1.1336
       CONSTANT HEAD     =           0.0000         CONSTANT HEAD     =           0.0000
     HEAD DEP BOUNDS     =     2587272.2500       HEAD DEP BOUNDS     =           0.2951
      STREAM LEAKAGE     =    92050584.0000        STREAM LEAKAGE     =          12.1647
        UZF RECHARGE     =           0.0000          UZF RECHARGE     =           0.0000
               GW ET     =      184367.0000                 GW ET     =           0.1054
     SURFACE LEAKAGE     =           0.0000       SURFACE LEAKAGE     =           0.0000
           AG WELLS      =     3261292.2500             AG WELLS      =           3.7200

               TOTAL OUT =   121585304.0000                 TOTAL OUT =          17.4188

                IN - OUT =       -4176.0000                  IN - OUT =       1.2646E-03

     PERCENT DISCREPANCY =          -0.00         PERCENT DISCREPANCY =           0.01






         TIME SUMMARY AT END OF TIME STEP   10 IN STRESS PERIOD    5
                    SECONDS     MINUTES      HOURS       DAYS        YEARS
                    -----------------------------------------------------------
   TIME STEP LENGTH  87667.      1461.1      24.352      1.0147     2.77799E-03
 STRESS PERIOD TIME 8.76667E+05  14611.      243.52      10.147     2.77799E-02
         TOTAL TIME 8.85306E+06 1.47551E+05  2459.2      102.47     0.28054    
1
 
 SOLVING FOR HEAD 
                                                   Max.-Head-Change                         Max.-Flux-Residual
  Residual-Control   Outer-Iter.   Inner-Iter.     Column Row Layer    Maximum-Head-Change  Column Row Layer    Maximum-Flux-Residual          L2-NORM 
          0                 1           2             4    7     1      -0.1087771166E-01       4    7    1        -0.5701062746E+00      0.1466582547E+01
          0                 2           2             4    7     1       0.1058103047E-02       4    7    1         0.5701051859E-01      0.1457817635E+00
          0                 3           1             4    7     1      -0.7205291214E-04       4    7    1        -0.3990739064E-02      0.1012342347E-01

    ------------------------------------------------
       NWT REQUIRED            3 OUTER ITERATIONS 
       AND A TOTAL OF          5 INNER ITERATIONS.
    ------------------------------------------------

 NO OUTPUT CONTROL FOR STRESS PERIOD    5   TIME STEP   11
 
 SOLVING FOR HEAD 
                                                   Max.-Head-Change                         Max.-Flux-Residual
  Residual-Control   Outer-Iter.   Inner-Iter.     Column Row Layer    Maximum-Head-Change  Column Row Layer    Maximum-Flux-Residual          L2-NORM 
          0                 1           2             4    7     1      -0.1078163794E-01       4    7    1        -0.5652013573E+00      0.1423934278E+01
          0                 2           2             4    7     1       0.1048757667E-02       4    7    1         0.5652002485E-01      0.1416392134E+00
          0                 3           1             4    7     1      -0.7141652635E-04       4    7    1        -0.3956404475E-02      0.9845528379E-02

    ------------------------------------------------
       NWT REQUIRED            3 OUTER ITERATIONS 
       AND A TOTAL OF          5 INNER ITERATIONS.
    ------------------------------------------------

 NO OUTPUT CONTROL FOR STRESS PERIOD    5   TIME STEP   12
 
 SOLVING FOR HEAD 
                                                   Max.-Head-Change                         Max.-Flux-Residual
  Residual-Control   Outer-Iter.   Inner-Iter.     Column Row Layer    Maximum-Head-Change  Column Row Layer    Maximum-Flux-Residual          L2-NORM 
          0                 1           2             4    7     1      -0.1068433505E-01       4    7    1        -0.5602199545E+00      0.1385628980E+01
          0                 2           2             4    7     1       0.1039292728E-02       4    7    1         0.5602188297E-01      0.1379099087E+00
          0                 3           1             4    7     1      -0.7077199947E-04       4    7    1        -0.3921534561E-02      0.9593365353E-02

    ------------------------------------------------
       NWT REQUIRED            3 OUTER ITERATIONS 
       AND A TOTAL OF          5 INNER ITERATIONS.
    ------------------------------------------------

 NO OUTPUT CONTROL FOR STRESS PERIOD    5   TIME STEP   13
 
 SOLVING FOR HEAD 
                                                   Max.-Head-Change                         Max.-Flux-Residual
  Residual-Control   Outer-Iter.   Inner-Iter.     Column Row Layer    Maximum-Head-Change  Column Row Layer    Maximum-Flux-Residual          L2-NORM 
          0                 1           2             4    7     1      -0.1058548539E-01       4    7    1        -0.5551451629E+00      0.1351062489E+01
          0                 2           2             4    7     1       0.1029677336E-02       4    7    1         0.5551440264E-01      0.1345429143E+00
          0                 3           1             4    7     1      -0.7011722748E-04       4    7    1        -0.3886010932E-02      0.9366381100E-02

    ------------------------------------------------
       NWT REQUIRED            3 OUTER ITERATIONS 
       AND A TOTAL OF          5 INNER ITERATIONS.
    ------------------------------------------------

 NO OUTPUT CONTROL FOR STRESS PERIOD    5   TIME STEP   14
 
 SOLVING FOR HEAD 
                                                   Max.-Head-Change                         Max.-Flux-Residual
  Residual-Control   Outer-Iter.   Inner-Iter.     Column Row Layer    Maximum-Head-Change  Column Row Layer    Maximum-Flux-Residual          L2-NORM 
          0                 1           2             4    7     1      -0.1048586366E-01       4    7    1        -0.5500198371E+00      0.1319740958E+01
          0                 2           2             4    7     1       0.1019986848E-02       4    7    1         0.5500186920E-01      0.1314896693E+00
          0                 3           1             4    7     1      -0.6945734122E-04       4    7    1        -0.3850133584E-02      0.9159452126E-02

    ------------------------------------------------
       NWT REQUIRED            3 OUTER ITERATIONS 
       AND A TOTAL OF          5 INNER ITERATIONS.
    ------------------------------------------------

 NO OUTPUT CONTROL FOR STRESS PERIOD    5   TIME STEP   15
 
 SOLVING FOR HEAD 
                                                   Max.-Head-Change                         Max.-Flux-Residual
  Residual-Control   Outer-Iter.   Inner-Iter.     Column Row Layer    Maximum-Head-Change  Column Row Layer    Maximum-Flux-Residual          L2-NORM 
          0                 1           2             4    7     1      -0.1038538187E-01       4    7    1        -0.5448396537E+00      0.1291212987E+01
          0                 2           2             4    7     1       0.1010212704E-02       4    7    1         0.5448385030E-01      0.1287026570E+00
          0                 3           1             4    7     1      -0.6879175847E-04       4    7    1        -0.3813872251E-02      0.8970663958E-02

    ------------------------------------------------
       NWT REQUIRED            3 OUTER ITERATIONS 
       AND A TOTAL OF          5 INNER ITERATIONS.
    ------------------------------------------------

 NO OUTPUT CONTROL FOR STRESS PERIOD    5   TIME STEP   16
 
 SOLVING FOR HEAD 
                                                   Max.-Head-Change                         Max.-Flux-Residual
  Residual-Control   Outer-Iter.   Inner-Iter.     Column Row Layer    Maximum-Head-Change  Column Row Layer    Maximum-Flux-Residual          L2-NORM 
          0                 1           2             4    7     1      -0.1028451075E-01       4    7    1        -0.5396297098E+00      0.1265129584E+01
          0                 2           2             4    7     1       0.1000400694E-02       4    7    1         0.5396285564E-01      0.1261521602E+00
          0                 3           1             4    7     1      -0.6812359716E-04       4    7    1        -0.3777402617E-02      0.8797226086E-02

    ------------------------------------------------
       NWT REQUIRED            3 OUTER ITERATIONS 
       AND A TOTAL OF          5 INNER ITERATIONS.
    ------------------------------------------------

 NO OUTPUT CONTROL FOR STRESS PERIOD    5   TIME STEP   17
 
 SOLVING FOR HEAD 
                                                   Max.-Head-Change                         Max.-Flux-Residual
  Residual-Control   Outer-Iter.   Inner-Iter.     Column Row Layer    Maximum-Head-Change  Column Row Layer    Maximum-Flux-Residual          L2-NORM 
          0                 1           2             4    7     1      -0.1018285554E-01       4    7    1        -0.5343699244E+00      0.1241145706E+01
          0                 2           2             4    7     1       0.9905124155E-03       4    7    1         0.5343687709E-01      0.1238038480E+00
          0                 3           1             4    7     1      -0.6745024159E-04       4    7    1        -0.3740584096E-02      0.8637718265E-02

    ------------------------------------------------
       NWT REQUIRED            3 OUTER ITERATIONS 
       AND A TOTAL OF          5 INNER ITERATIONS.
    ------------------------------------------------

 NO OUTPUT CONTROL FOR STRESS PERIOD    5   TIME STEP   18
 
 SOLVING FOR HEAD 
                                                   Max.-Head-Change                         Max.-Flux-Residual
  Residual-Control   Outer-Iter.   Inner-Iter.     Column Row Layer    Maximum-Head-Change  Column Row Layer    Maximum-Flux-Residual          L2-NORM 
          0                 1           2             4    7     1      -0.1008115025E-01       4    7    1        -0.5290991453E+00      0.1219024039E+01
          0                 2           2             4    7     1       0.9806192687E-03       4    7    1         0.5290979941E-01      0.1216342338E+00
          0                 3           1             4    7     1      -0.6677655514E-04       4    7    1        -0.3703688641E-02      0.8489344486E-02

    ------------------------------------------------
       NWT REQUIRED            3 OUTER ITERATIONS 
       AND A TOTAL OF          5 INNER ITERATIONS.
    ------------------------------------------------

 NO OUTPUT CONTROL FOR STRESS PERIOD    5   TIME STEP   19
 
 SOLVING FOR HEAD 
                                                   Max.-Head-Change                         Max.-Flux-Residual
  Residual-Control   Outer-Iter.   Inner-Iter.     Column Row Layer    Maximum-Head-Change  Column Row Layer    Maximum-Flux-Residual          L2-NORM 
          0                 1           2             4    7     1      -0.9979243679E-02       4    7    1        -0.5238109436E+00      0.1198497514E+01
          0                 2           2             4    7     1       0.9707065471E-03       4    7    1         0.5238097967E-01      0.1196181700E+00
          0                 3           1             4    7     1      -0.6610153575E-04       4    7    1        -0.3666671249E-02      0.8351774439E-02

    ------------------------------------------------
       NWT REQUIRED            3 OUTER ITERATIONS 
       AND A TOTAL OF          5 INNER ITERATIONS.
    ------------------------------------------------

 NO OUTPUT CONTROL FOR STRESS PERIOD    5   TIME STEP   20
 
 SOLVING FOR HEAD 
                                                   Max.-Head-Change                         Max.-Flux-Residual
  Residual-Control   Outer-Iter.   Inner-Iter.     Column Row Layer    Maximum-Head-Change  Column Row Layer    Maximum-Flux-Residual          L2-NORM 
          0                 1           2             4    7     1      -0.9877283658E-02       4    7    1        -0.5185123088E+00      0.1179390201E+01
          0                 2           2             4    7     1       0.9607886278E-03       4    7    1         0.5185111680E-01      0.1177235153E+00
          0                 3           1             4    7     1      -0.6542616183E-04       4    7    1        -0.3629580805E-02      0.8226801448E-02

    ------------------------------------------------
       NWT REQUIRED            3 OUTER ITERATIONS 
       AND A TOTAL OF          5 INNER ITERATIONS.
    ------------------------------------------------

 NO OUTPUT CONTROL FOR STRESS PERIOD    5   TIME STEP   21
 
 SOLVING FOR HEAD 
                                                   Max.-Head-Change                         Max.-Flux-Residual
  Residual-Control   Outer-Iter.   Inner-Iter.     Column Row Layer    Maximum-Head-Change  Column Row Layer    Maximum-Flux-Residual          L2-NORM 
          0                 1           2             4    7     1      -0.9775663976E-02       4    7    1        -0.5132257331E+00      0.1161531536E+01
          0                 2           2             4    7     1       0.9509038166E-03       4    7    1         0.5132245997E-01      0.1158242177E+00
          0                 3           1             4    7     1      -0.6475304316E-04       4    7    1        -0.3592574816E-02      0.8092328196E-02

    ------------------------------------------------
       NWT REQUIRED            3 OUTER ITERATIONS 
       AND A TOTAL OF          5 INNER ITERATIONS.
    ------------------------------------------------

 NO OUTPUT CONTROL FOR STRESS PERIOD    5   TIME STEP   22
 
 SOLVING FOR HEAD 
                                                   Max.-Head-Change                         Max.-Flux-Residual
  Residual-Control   Outer-Iter.   Inner-Iter.     Column Row Layer    Maximum-Head-Change  Column Row Layer    Maximum-Flux-Residual          L2-NORM 
          0                 1           2             4    7     1      -0.9674215776E-02       4    7    1        -0.5079419781E+00      0.1144899588E+01
          0                 2           2             4    7     1       0.9410356888E-03       4    7    1         0.5079408542E-01      0.1143390109E+00
          0                 3           1             4    7     1      -0.6408106006E-04       4    7    1        -0.3555588575E-02      0.7989851010E-02

    ------------------------------------------------
       NWT REQUIRED            3 OUTER ITERATIONS 
       AND A TOTAL OF          5 INNER ITERATIONS.
    ------------------------------------------------

 NO OUTPUT CONTROL FOR STRESS PERIOD    5   TIME STEP   23
 
 SOLVING FOR HEAD 
                                                   Max.-Head-Change                         Max.-Flux-Residual
  Residual-Control   Outer-Iter.   Inner-Iter.     Column Row Layer    Maximum-Head-Change  Column Row Layer    Maximum-Flux-Residual          L2-NORM 
          0                 1           2             4    7     1      -0.9573042554E-02       4    7    1        -0.5026671167E+00      0.1129199488E+01
          0                 2           2             4    7     1       0.9311976921E-03       4    7    1         0.5026660031E-01      0.1127869783E+00
          0                 3           1             4    7     1      -0.6341441938E-04       4    7    1        -0.3518664606E-02      0.7888111593E-02

    ------------------------------------------------
       NWT REQUIRED            3 OUTER ITERATIONS 
       AND A TOTAL OF          5 INNER ITERATIONS.
    ------------------------------------------------

 NO OUTPUT CONTROL FOR STRESS PERIOD    5   TIME STEP   24
 
 SOLVING FOR HEAD 
                                                   Max.-Head-Change                         Max.-Flux-Residual
  Residual-Control   Outer-Iter.   Inner-Iter.     Column Row Layer    Maximum-Head-Change  Column Row Layer    Maximum-Flux-Residual          L2-NORM 
          0                 1           2             4    7     1      -0.9472245699E-02       4    7    1        -0.4974065230E+00      0.1114342159E+01
          0                 2           2             4    7     1       0.9213459292E-03       4    7    1         0.4974054209E-01      0.1112546269E+00
          0                 3           1             4    7     1      -0.6274025982E-04       4    7    1        -0.3481840496E-02      0.7777258586E-02

    ------------------------------------------------
       NWT REQUIRED            3 OUTER ITERATIONS 
       AND A TOTAL OF          5 INNER ITERATIONS.
    ------------------------------------------------

 NO OUTPUT CONTROL FOR STRESS PERIOD    5   TIME STEP   25
 
 SOLVING FOR HEAD 
                                                   Max.-Head-Change                         Max.-Flux-Residual
  Residual-Control   Outer-Iter.   Inner-Iter.     Column Row Layer    Maximum-Head-Change  Column Row Layer    Maximum-Flux-Residual          L2-NORM 
          0                 1           2             4    7     1      -0.9372318228E-02       4    7    1        -0.4921825746E+00      0.1100298425E+01
          0                 2           2             4    7     1       0.9116693512E-03       4    7    1         0.4921814862E-01      0.1099296451E+00
          0                 3           1             4    7     1      -0.6208132072E-04       4    7    1        -0.3445272915E-02      0.7685432921E-02

    ------------------------------------------------
       NWT REQUIRED            3 OUTER ITERATIONS 
       AND A TOTAL OF          5 INNER ITERATIONS.
    ------------------------------------------------

 NO OUTPUT CONTROL FOR STRESS PERIOD    5   TIME STEP   26
 
 SOLVING FOR HEAD 
                                                   Max.-Head-Change                         Max.-Flux-Residual
  Residual-Control   Outer-Iter.   Inner-Iter.     Column Row Layer    Maximum-Head-Change  Column Row Layer    Maximum-Flux-Residual          L2-NORM 
          0                 1           2             4    7     1      -0.9272912877E-02       4    7    1        -0.4869842510E+00      0.1086933001E+01
          0                 2           2             4    7     1       0.9019999427E-03       4    7    1         0.4869831765E-01      0.1086064325E+00
          0                 3           1             4    7     1      -0.6142286989E-04       4    7    1        -0.3408884717E-02      0.7594569535E-02

    ------------------------------------------------
       NWT REQUIRED            3 OUTER ITERATIONS 
       AND A TOTAL OF          5 INNER ITERATIONS.
    ------------------------------------------------

 NO OUTPUT CONTROL FOR STRESS PERIOD    5   TIME STEP   27
 
 SOLVING FOR HEAD 
                                                   Max.-Head-Change                         Max.-Flux-Residual
  Residual-Control   Outer-Iter.   Inner-Iter.     Column Row Layer    Maximum-Head-Change  Column Row Layer    Maximum-Flux-Residual          L2-NORM 
          0                 1           2             4    7     1      -0.9174139485E-02       4    7    1        -0.4818153185E+00      0.1074168595E+01
          0                 2           2             4    7     1       0.8923920076E-03       4    7    1         0.4818142586E-01      0.1073409091E+00
          0                 3           1             4    7     1      -0.6076860461E-04       4    7    1        -0.3372702259E-02      0.7506967937E-02

    ------------------------------------------------
       NWT REQUIRED            3 OUTER ITERATIONS 
       AND A TOTAL OF          5 INNER ITERATIONS.
    ------------------------------------------------

 NO OUTPUT CONTROL FOR STRESS PERIOD    5   TIME STEP   28
 
 SOLVING FOR HEAD 
                                                   Max.-Head-Change                         Max.-Flux-Residual
  Residual-Control   Outer-Iter.   Inner-Iter.     Column Row Layer    Maximum-Head-Change  Column Row Layer    Maximum-Flux-Residual          L2-NORM 
          0                 1           2             4    7     1      -0.9075968760E-02       4    7    1        -0.4766791543E+00      0.1146330630E+01
          0                 2           2             4    7     1       0.8828426960E-03       4    7    1         0.4766781089E-01      0.1142271630E+00
          0                 3           1             4    7     1      -0.6011833154E-04       4    7    1        -0.3336749194E-02      0.7959075008E-02

    ------------------------------------------------
       NWT REQUIRED            3 OUTER ITERATIONS 
       AND A TOTAL OF          5 INNER ITERATIONS.
    ------------------------------------------------

 NO OUTPUT CONTROL FOR STRESS PERIOD    5   TIME STEP   29
 
 SOLVING FOR HEAD 
                                                   Max.-Head-Change                         Max.-Flux-Residual
  Residual-Control   Outer-Iter.   Inner-Iter.     Column Row Layer    Maximum-Head-Change  Column Row Layer    Maximum-Flux-Residual          L2-NORM 
          0                 1           2             4   13     1       0.2591957941E-01       4   13    1         0.1501293788E+01      0.2844525106E+01
          0                 2           2             4   13     1      -0.2882526121E-02       4   13    1        -0.1752350439E+00      0.2921546253E+00
          0                 3           2             4   13     1       0.1933340582E-03       4   13    1         0.1208453057E-01      0.1971893100E-01
          0                 4           1             4   13     1      -0.7494702363E-05       4   13    1        -0.4816955861E-03      0.7608333411E-03

    ------------------------------------------------
       NWT REQUIRED            4 OUTER ITERATIONS 
       AND A TOTAL OF          7 INNER ITERATIONS.
    ------------------------------------------------

 NO OUTPUT CONTROL FOR STRESS PERIOD    5   TIME STEP   30



 STREAM LISTING     PERIOD      5   STEP       30

 LAYER ROW COL. STREAM  RCH.  FLOW INTO     FLOW TO   FLOW OUT OF   OVRLND.     DIRECT     STREAM       STREAM     STREAM     STREAM   STREAMBED  STREAMBED
                SEG.NO.  NO.  STRM. RCH.    AQUIFER    STRM. RCH.    RUNOFF     PRECIP       ET          HEAD       DEPTH      WIDTH   CONDCTNC.   GRADIENT

   1    1    1     1     1    9.9000E+01  4.7281E-01   9.8528E+01  0.000E+00  0.000E+00  0.000E+00  1.09484E+03  1.796E+00  2.191E+01  9.859E-02  1.599E+00
   1    2    2     1     2    9.8528E+01  7.3365E-01   9.7794E+01  0.000E+00  0.000E+00  0.000E+00  1.08985E+03  1.793E+00  2.187E+01  1.531E-01  1.598E+00
   1    3    3     1     3    9.7794E+01  6.2707E-01   9.7167E+01  0.000E+00  0.000E+00  0.000E+00  1.08421E+03  1.791E+00  2.181E+01  1.309E-01  1.597E+00
   1    3    4     1     4    9.7167E+01  5.7859E-01   9.6588E+01  0.000E+00  0.000E+00  0.000E+00  1.07920E+03  1.789E+00  2.177E+01  1.208E-01  1.596E+00
   1    4    5     2     1    9.4588E+01  4.4299E-01   9.4145E+01  0.000E+00  0.000E+00  0.000E+00  1.07461E+03  2.679E+00  1.200E+01  7.800E-02  1.893E+00
   1    5    6     2     2    9.4145E+01  3.4036E-01   9.3805E+01  0.000E+00  0.000E+00  0.000E+00  1.06918E+03  2.673E+00  1.200E+01  6.000E-02  1.891E+00
   1    6    6     2     3    9.3805E+01  3.4001E-01   9.3465E+01  0.000E+00  0.000E+00  0.000E+00  1.06446E+03  2.667E+00  1.200E+01  6.000E-02  1.889E+00
   1    7    6     2     4    9.3465E+01  3.3967E-01   9.3125E+01  0.000E+00  0.000E+00  0.000E+00  1.05974E+03  2.661E+00  1.200E+01  6.000E-02  1.887E+00
   1    8    6     2     5    9.3125E+01  3.3932E-01   9.2786E+01  0.000E+00  0.000E+00  0.000E+00  1.05501E+03  2.655E+00  1.200E+01  6.000E-02  1.885E+00
   1    3    5     3     1    2.0000E+00  2.8252E-01   1.7175E+00  0.000E+00  0.000E+00  0.000E+00  1.07555E+03  1.909E+00  9.636E+00  7.227E-02  1.955E+00
   1    3    6     3     2    1.7175E+00  2.4905E-01   1.4684E+00  0.000E+00  0.000E+00  0.000E+00  1.07264E+03  1.727E+00  8.909E+00  6.682E-02  1.864E+00
   1    3    7     3     3    1.4684E+00  1.9718E-01   1.2712E+00  0.000E+00  0.000E+00  0.000E+00  1.06987E+03  1.555E+00  8.218E+00  5.547E-02  1.777E+00
   1    4    8     3     4    1.2712E+00  2.2567E-01   1.0456E+00  0.000E+00  0.000E+00  0.000E+00  1.06682E+03  1.364E+00  7.455E+00  6.709E-02  1.682E+00
   1    5    8     3     5    1.0456E+00  1.5790E-01   8.8768E-01  0.000E+00  0.000E+00  0.000E+00  1.06362E+03  1.164E+00  6.655E+00  4.991E-02  1.582E+00
   1    6    8     3     6    8.8768E-01  5.5980E-02   8.3170E-01  0.000E+00  0.000E+00  0.000E+00  1.06158E+03  1.036E+00  6.145E+00  1.844E-02  1.518E+00
   1    5   10     4     1    1.0000E+01  9.0919E-02   9.9091E+00  0.000E+00  0.000E+00  0.000E+00  1.07836E+03  6.368E-01  1.000E+01  2.500E-02  1.212E+00
   1    5    9     4     2    9.9091E+00  1.8158E-01   9.7275E+00  0.000E+00  0.000E+00  0.000E+00  1.07154E+03  6.315E-01  1.000E+01  5.000E-02  1.211E+00
   1    6    8     4     3    9.7275E+00  1.2689E-01   9.6006E+00  0.000E+00  0.000E+00  0.000E+00  1.06381E+03  6.256E-01  1.000E+01  3.500E-02  1.209E+00
   1    6    8     5     1    1.0432E+01  2.2686E-01   1.0205E+01  0.000E+00  0.000E+00  0.000E+00  1.05868E+03  6.790E-01  1.542E+01  6.166E-02  1.226E+00
   1    7    7     5     2    1.0205E+01  2.7894E-01   9.9265E+00  0.000E+00  0.000E+00  0.000E+00  1.05417E+03  6.732E-01  1.519E+01  7.594E-02  1.224E+00
   1    8    7     5     3    9.9265E+00  1.9221E-01   9.7343E+00  0.000E+00  0.000E+00  0.000E+00  1.04992E+03  6.676E-01  1.497E+01  5.241E-02  1.223E+00
   1    8    6     5     4    9.7343E+00  1.3577E-01   9.5985E+00  0.000E+00  0.000E+00  0.000E+00  1.04691E+03  6.637E-01  1.482E+01  3.706E-02  1.221E+00
   1    9    6     6     1    1.0238E+02  3.5054E-01   1.0203E+02  0.000E+00  0.000E+00  0.000E+00  1.04557E+03  2.842E+00  1.200E+01  6.000E-02  1.947E+00
   1   10    7     6     2    1.0203E+02  3.5018E-01   1.0168E+02  0.000E+00  0.000E+00  0.000E+00  1.04102E+03  2.836E+00  1.200E+01  6.000E-02  1.945E+00
   1   11    7     6     3    1.0168E+02  3.4983E-01   1.0133E+02  0.000E+00  0.000E+00  0.000E+00  1.03647E+03  2.831E+00  1.200E+01  6.000E-02  1.944E+00
   1   12    7     6     4    1.0133E+02  3.4948E-01   1.0098E+02  0.000E+00  0.000E+00  0.000E+00  1.03192E+03  2.825E+00  1.200E+01  6.000E-02  1.942E+00
   1   13    7     6     5    1.0098E+02  3.7134E-02   1.0095E+02  0.000E+00  0.000E+00  0.000E+00  1.02873E+03  2.821E+00  1.200E+01  2.400E-02  5.158E-01
   1   14    9     7     1    1.5000E+02  1.3318E+00   1.4867E+02  0.000E+00  0.000E+00  0.000E+00  1.03987E+03  2.288E+00  5.529E+01  5.593E-01  7.937E-01
   1   13    8     7     2    1.4867E+02  1.8109E+00   1.4686E+02  0.000E+00  0.000E+00  0.000E+00  1.03478E+03  2.279E+00  5.526E+01  6.148E-01  9.819E-01
   1   13    7     7     3    1.4686E+02  1.4000E+00   1.4546E+02  0.000E+00  0.000E+00  0.000E+00  1.02969E+03  2.271E+00  5.522E+01  5.585E-01  8.356E-01
   1   13    6     8     1    2.4640E+02  1.1761E+00   2.4523E+02  0.000E+00  0.000E+00  0.000E+00  1.02527E+03  3.390E+00  4.916E+01  5.009E-01  7.827E-01
   1   13    5     8     2    2.4523E+02  3.1457E-01   2.4491E+02  0.000E+00  0.000E+00  0.000E+00  1.01901E+03  3.386E+00  4.910E+01  5.003E-01  2.096E-01
   1   13    4     8     3    2.4491E+02 -1.2778E+00   2.4619E+02  0.000E+00  0.000E+00  0.000E+00  1.01276E+03  3.389E+00  4.914E+01  5.007E+00 -8.506E-02
   1   13    3     8     4    2.4619E+02 -2.5237E+00   2.4872E+02  0.000E+00  0.000E+00  0.000E+00  1.00652E+03  3.399E+00  4.928E+01  5.022E+00 -1.675E-01
   1   13    2     8     5    2.4872E+02 -1.3006E+00   2.5002E+02  0.000E+00  0.000E+00  0.000E+00  1.00028E+03  3.408E+00  4.942E+01  5.036E+00 -8.609E-02
   1   13    1     8     6    2.5002E+02 -1.2936E+00   2.5131E+02  0.000E+00  0.000E+00  0.000E+00  9.95290E+02  3.415E+00  4.952E+01  3.028E+00 -1.424E-01





UNSATURATED ZONE PACKAGE VOLUMETRIC BUDGET FOR  TIME STEP    30 STRESS PERIOD    5
  ------------------------------------------------------------------------------



     CUMULATIVE VOLUMES      L**3       RATES FOR THIS TIME STEP      L**3/T
     ------------------                 ------------------------

           IN:                                      IN:
           ---                                      ---
        INFILTRATION =    18772615.2290          INFILTRATION =           4.5675

          OUT:                                     OUT:
          ----                                     ----
              UZF ET =    18698714.0577                UZF ET =           4.5675
        UZF RECHARGE =       73224.0000          UZF RECHARGE =       0.0000E+00

            IN - OUT =         677.1713              IN - OUT =       0.0000E+00

          STORAGE:                                 STORAGE:
          --------                                 --------
      STORAGE CHANGE =         677.2369        STORAGE CHANGE =       8.4380E-15

 PERCENT DISCREPANCY IS DIFFERENCE BETWEEN IN-OUT MINUS CHANGE IN STORAGE
 DIVIDED BY THE AVERAGE OF IN AND OUT TIMES 100

 PERCENT DISCREPANCY =           0.00     PERCENT DISCREPANCY =           0.00






1
  VOLUMETRIC BUDGET FOR AGRICULTURAL FIELDS AT  END OF TIME STEP   30, STRESS PERIOD   5
  ------------------------------------------------------------------------------

     CUMULATIVE VOLUMES      L**3       RATES FOR THIS TIME STEP      L**3/T
     ------------------                 ------------------------

           IN:                                      IN:
           ---                                      ---
               AG WELLS  =     9783692.0000                 AG WELLS  =           3.7200
      DIVERSION SEGMENTS =           0.0000        DIVERSION SEGMENTS =           0.0000
           GW IRRIGATION =           0.0000             GW IRRIGATION =           0.0000
           SW IRRIGATION =           0.0000             SW IRRIGATION =           0.0000
        SYSTEM LOSSES GW =           0.0000          SYSTEM LOSSES GW =           0.0000
        SYSTEM LOSSES SW =           0.0000          SYSTEM LOSSES SW =           0.0000

                TOTAL IN =     9783692.0000                  TOTAL IN =           3.7200

          OUT:                                     OUT:
          ----                                     ----
               AG WELLS  =           0.0000                 AG WELLS  =           0.0000
      DIVERSION SEGMENTS =           0.0000        DIVERSION SEGMENTS =           0.0000
           GW IRRIGATION =     9783692.0000             GW IRRIGATION =           3.7200
           SW IRRIGATION =           0.0000             SW IRRIGATION =           0.0000
        SYSTEM LOSSES GW =           0.0000          SYSTEM LOSSES GW =           0.0000
        SYSTEM LOSSES SW =           0.0000          SYSTEM LOSSES SW =           0.0000

               TOTAL OUT =     9783692.0000                 TOTAL OUT =           3.7200

                IN - OUT =           0.0000                  IN - OUT =           0.0000

     PERCENT DISCREPANCY =           0.00         PERCENT DISCREPANCY =           0.00



1
  VOLUMETRIC BUDGET FOR ENTIRE MODEL AT END OF TIME STEP   30, STRESS PERIOD   5
  ------------------------------------------------------------------------------

     CUMULATIVE VOLUMES      L**3       RATES FOR THIS TIME STEP      L**3/T
     ------------------                 ------------------------

           IN:                                      IN:
           ---                                      ---
             STORAGE     =    17889418.0000               STORAGE     =           3.4383
       CONSTANT HEAD     =           0.0000         CONSTANT HEAD     =           0.0000
     HEAD DEP BOUNDS     =     3027432.2500       HEAD DEP BOUNDS     =           0.2855
      STREAM LEAKAGE     =   129797984.0000        STREAM LEAKAGE     =          14.0865
        UZF RECHARGE     =       73223.9531          UZF RECHARGE     =           0.0000
               GW ET     =           0.0000                 GW ET     =           0.0000
     SURFACE LEAKAGE     =           0.0000       SURFACE LEAKAGE     =           0.0000
           AG WELLS      =           0.0000             AG WELLS      =           0.0000

                TOTAL IN =   150788048.0000                  TOTAL IN =          17.8103

          OUT:                                     OUT:
          ----                                     ----
             STORAGE     =    25818228.0000               STORAGE     =           7.3456
       CONSTANT HEAD     =           0.0000         CONSTANT HEAD     =           0.0000
     HEAD DEP BOUNDS     =     3102142.0000       HEAD DEP BOUNDS     =           0.2933
      STREAM LEAKAGE     =   111847512.0000        STREAM LEAKAGE     =           6.3956
        UZF RECHARGE     =           0.0000          UZF RECHARGE     =           0.0000
               GW ET     =      238934.1719                 GW ET     =       5.5732E-02
     SURFACE LEAKAGE     =           0.0000       SURFACE LEAKAGE     =           0.0000
           AG WELLS      =     9783692.0000             AG WELLS      =           3.7200

               TOTAL OUT =   150790512.0000                 TOTAL OUT =          17.8102

                IN - OUT =       -2464.0000                  IN - OUT =       1.7166E-05

     PERCENT DISCREPANCY =          -0.00         PERCENT DISCREPANCY =           0.00






         TIME SUMMARY AT END OF TIME STEP   30 IN STRESS PERIOD    5
                    SECONDS     MINUTES      HOURS       DAYS        YEARS
                    -----------------------------------------------------------
   TIME STEP LENGTH  87667.      1461.1      24.352      1.0147     2.77799E-03
 STRESS PERIOD TIME 2.63000E+06  43833.      730.56      30.440     8.33397E-02
         TOTAL TIME 1.06064E+07 1.76773E+05  2946.2      122.76     0.33610    
1
1
                            STRESS PERIOD NO.    6, LENGTH =   2630000.    
                            -----------------------------------------------

                              NUMBER OF TIME STEPS =    30

                               MULTIPLIER FOR DELT =     1.000

                            INITIAL TIME STEP SIZE =   87666.66    

 REUSING NON-PARAMETER GHB CELLS FROM LAST STRESS PERIOD

      2 GHB CELLS

 REUSING STREAM SEGMENT DATA FROM LAST STRESS PERIOD



            AREAL INFILTRATION RATE
 READING ON UNIT   19 WITH FORMAT: (FREE)              

            1           2           3           4           5           6           7           8           9          10
 ........................................................................................................................
   1   1.0000E-10  2.0000E-10   0.000       0.000       0.000       0.000       0.000       0.000       0.000       0.000    
   2   2.0000E-10  1.0000E-10  2.0000E-10   0.000       0.000      8.0000E-10  8.0000E-10  5.0000E-10   0.000       0.000    
   3    0.000      5.0000E-10  1.0000E-10  1.0000E-10  8.0000E-10  8.0000E-10  5.0000E-10  5.0000E-10   0.000       0.000    
   4   8.0000E-10  5.0000E-10  1.0000E-10  1.0000E-10  1.0000E-10  1.0000E-10  1.0000E-10  1.0000E-10  2.0000E-10   0.000    
   5   8.0000E-10  5.0000E-10  1.0000E-10  1.0000E-10  1.0000E-10  1.0000E-10  1.0000E-10  1.0000E-10  1.0000E-10  1.0000E-10
   6   8.0000E-10  5.0000E-10  5.0000E-10  2.0000E-10  2.0000E-10  1.0000E-10  1.0000E-10  1.0000E-10  1.0000E-10  5.0000E-10
   7   8.0000E-10  5.0000E-10  5.0000E-10  2.0000E-10  2.0000E-10  1.0000E-10  1.0000E-10  2.0000E-10  2.0000E-10   0.000    
   8    0.000      5.0000E-10  5.0000E-10  2.0000E-10  2.0000E-10  1.0000E-10  1.0000E-10  2.0000E-10  5.0000E-10   0.000    
   9    0.000      5.0000E-10  5.0000E-10  2.0000E-10  2.0000E-10  1.0000E-10  1.0000E-10  2.0000E-10  5.0000E-10   0.000    
  10    0.000      5.0000E-10  5.0000E-10  2.0000E-10  2.0000E-10  1.0000E-10  1.0000E-10  2.0000E-10  5.0000E-10  8.0000E-10
  11    0.000      1.0000E-10  1.0000E-10  1.0000E-10  1.0000E-10  1.0000E-10  1.0000E-10  2.0000E-10  5.0000E-10   0.000    
  12   1.0000E-10  1.0000E-10  1.0000E-10  1.0000E-10  1.0000E-10  1.0000E-10  1.0000E-10  1.0000E-10  2.0000E-10   0.000    
  13   1.0000E-10  1.0000E-10  2.0000E-10  2.0000E-10  2.0000E-10  2.0000E-10  2.0000E-10  1.0000E-10  1.0000E-10   0.000    
  14    0.000      2.0000E-10  5.0000E-10  5.0000E-10  5.0000E-10  5.0000E-10  5.0000E-10  2.0000E-10  1.0000E-10   0.000    
  15    0.000       0.000      8.0000E-10  8.0000E-10  8.0000E-10  8.0000E-10   0.000       0.000       0.000       0.000    

                  ET RATE =  5.000000E-08

 USING ET EXTINCTION DEPTH FROM PREVIOUS STRESS PERIOD. CURRENT PERIOD IS:       6

 USING EXTINCTION WATER CONTENT FROM PREVIOUS STRESS PERIOD. CURRENT PERIOD IS:       6

 USING AIR ENTRY PRESSURE FROM PREVIOUS STRESS PERIOD. CURRENT PERIOD IS:       6

 USING ROOT PRESSURE HEAD FROM PREVIOUS STRESS PERIOD. CURRENT PERIOD IS:       6

 USING ROOT ACTIVITY FROM PREVIOUS STRESS PERIOD. CURRENT PERIOD IS:       6

 PROCESSING AG STRESS PERIOD DATA

 READING AG STRESS PERIOD DATA

 READING IRRIGATION WELL

 END PROCESSING AG STRESS PERIOD DATA OPTIONS
 
 SOLVING FOR HEAD 
                                                   Max.-Head-Change                         Max.-Flux-Residual
  Residual-Control   Outer-Iter.   Inner-Iter.     Column Row Layer    Maximum-Head-Change  Column Row Layer    Maximum-Flux-Residual          L2-NORM 
          0                 1           2             2   13     1       0.2250473863E-01       4   13    1         0.1302976853E+01      0.3454520132E+01
          0                 2           2             4   13     1      -0.2084634628E-02       4   13    1        -0.1289098653E+00      0.3404545577E+00
          0                 3           2             4   13     1       0.1398293714E-03       4   13    1         0.8890359959E-02      0.2339366879E-01
          0                 4           1             4    7     1       0.5489265105E-05       4   13    1        -0.3550645724E-03      0.9298578838E-03

    ------------------------------------------------
       NWT REQUIRED            4 OUTER ITERATIONS 
       AND A TOTAL OF          7 INNER ITERATIONS.
    ------------------------------------------------

 NO OUTPUT CONTROL FOR STRESS PERIOD    6   TIME STEP    1
 
 SOLVING FOR HEAD 
                                                   Max.-Head-Change                         Max.-Flux-Residual
  Residual-Control   Outer-Iter.   Inner-Iter.     Column Row Layer    Maximum-Head-Change  Column Row Layer    Maximum-Flux-Residual          L2-NORM 
          0                 1           2             4    7     1      -0.2069077372E-01       2   13    1         0.1173086322E+01      0.3272205736E+01
          0                 2           2             4    7     1       0.2012642583E-02       2   13    1        -0.1118957452E+00      0.3231967377E+00
          0                 3           2             4    7     1      -0.1370535522E-03       4   13    1         0.7681852683E-02      0.2225476858E-01
          0                 4           1             4    7     1       0.5453488742E-05       4    7    1         0.3101840884E-03      0.8873628564E-03

    ------------------------------------------------
       NWT REQUIRED            4 OUTER ITERATIONS 
       AND A TOTAL OF          7 INNER ITERATIONS.
    ------------------------------------------------

 NO OUTPUT CONTROL FOR STRESS PERIOD    6   TIME STEP    2
 
 SOLVING FOR HEAD 
                                                   Max.-Head-Change                         Max.-Flux-Residual
  Residual-Control   Outer-Iter.   Inner-Iter.     Column Row Layer    Maximum-Head-Change  Column Row Layer    Maximum-Flux-Residual          L2-NORM 
          0                 1           2             4    7     1      -0.2052603840E-01       2   13    1         0.1075563487E+01      0.3116828452E+01
          0                 2           2             4    7     1       0.1996618183E-02       4    7    1         0.1075081576E+00      0.3082992890E+00
          0                 3           2             4    7     1      -0.1359623512E-03       4    7    1        -0.7525577773E-02      0.2127073974E-01
          0                 4           1             4    7     1       0.5410068598E-05       4    7    1         0.3077965282E-03      0.8506264891E-03

    ------------------------------------------------
       NWT REQUIRED            4 OUTER ITERATIONS 
       AND A TOTAL OF          7 INNER ITERATIONS.
    ------------------------------------------------

 NO OUTPUT CONTROL FOR STRESS PERIOD    6   TIME STEP    3
 
 SOLVING FOR HEAD 
                                                   Max.-Head-Change                         Max.-Flux-Residual
  Residual-Control   Outer-Iter.   Inner-Iter.     Column Row Layer    Maximum-Head-Change  Column Row Layer    Maximum-Flux-Residual          L2-NORM 
          0                 1           2             4    7     1      -0.2035761051E-01       4    7    1        -0.1066528939E+01      0.2983924495E+01
          0                 2           2             4    7     1       0.1980234620E-02       4    7    1         0.1066525164E+00      0.2955513623E+00
          0                 3           2             4    7     1      -0.1348466925E-03       4    7    1        -0.7465682937E-02      0.2042805747E-01
          0                 4           1             4    7     1       0.5365675856E-05       4    7    1         0.3053468422E-03      0.8192274112E-03

    ------------------------------------------------
       NWT REQUIRED            4 OUTER ITERATIONS 
       AND A TOTAL OF          7 INNER ITERATIONS.
    ------------------------------------------------

 NO OUTPUT CONTROL FOR STRESS PERIOD    6   TIME STEP    4
 
 SOLVING FOR HEAD 
                                                   Max.-Head-Change                         Max.-Flux-Residual
  Residual-Control   Outer-Iter.   Inner-Iter.     Column Row Layer    Maximum-Head-Change  Column Row Layer    Maximum-Flux-Residual          L2-NORM 
          0                 1           2             4    7     1      -0.2018569230E-01       4    7    1        -0.1057766335E+01      0.2869728529E+01
          0                 2           2             4    7     1       0.1963511568E-02       4    7    1         0.1057762489E+00      0.2845913053E+00
          0                 3           2             4    7     1      -0.1337079161E-03       4    7    1        -0.7404344266E-02      0.1970300037E-01
          0                 4           1             4    7     1       0.5320363014E-05       4    7    1         0.3028380954E-03      0.7921233919E-03

    ------------------------------------------------
       NWT REQUIRED            4 OUTER ITERATIONS 
       AND A TOTAL OF          7 INNER ITERATIONS.
    ------------------------------------------------

 NO OUTPUT CONTROL FOR STRESS PERIOD    6   TIME STEP    5
 
 SOLVING FOR HEAD 
                                                   Max.-Head-Change                         Max.-Flux-Residual
  Residual-Control   Outer-Iter.   Inner-Iter.     Column Row Layer    Maximum-Head-Change  Column Row Layer    Maximum-Flux-Residual          L2-NORM 
          0                 1           2             4    7     1      -0.2001128111E-01       4    7    1        -0.1048852406E+01      0.2771086766E+01
          0                 2           2             4    7     1       0.1946546036E-02       4    7    1         0.1048848502E+00      0.2751135588E+00
          0                 3           2             4    7     1      -0.1325526266E-03       4    7    1        -0.7341946358E-02      0.1907526631E-01
          0                 4           1             4    7     1       0.5274393024E-05       4    7    1         0.3002860142E-03      0.7690714732E-03

    ------------------------------------------------
       NWT REQUIRED            4 OUTER ITERATIONS 
       AND A TOTAL OF          7 INNER ITERATIONS.
    ------------------------------------------------

 NO OUTPUT CONTROL FOR STRESS PERIOD    6   TIME STEP    6
 
 SOLVING FOR HEAD 
                                                   Max.-Head-Change                         Max.-Flux-Residual
  Residual-Control   Outer-Iter.   Inner-Iter.     Column Row Layer    Maximum-Head-Change  Column Row Layer    Maximum-Flux-Residual          L2-NORM 
          0                 1           2             4    7     1      -0.1983423785E-01       4    7    1        -0.1039779576E+01      0.2685347247E+01
          0                 2           2             4    7     1       0.1929324495E-02       4    7    1         0.1039775626E+00      0.2668652139E+00
          0                 3           2             4    7     1      -0.1313799041E-03       4    7    1        -0.7278436268E-02      0.1852800782E-01
          0                 4           1             4    7     1       0.5227729044E-05       4    7    1         0.2976884289E-03      0.7482329871E-03

    ------------------------------------------------
       NWT REQUIRED            4 OUTER ITERATIONS 
       AND A TOTAL OF          7 INNER ITERATIONS.
    ------------------------------------------------

 NO OUTPUT CONTROL FOR STRESS PERIOD    6   TIME STEP    7
 
 SOLVING FOR HEAD 
                                                   Max.-Head-Change                         Max.-Flux-Residual
  Residual-Control   Outer-Iter.   Inner-Iter.     Column Row Layer    Maximum-Head-Change  Column Row Layer    Maximum-Flux-Residual          L2-NORM 
          0                 1           2             4    7     1      -0.1965495254E-01       4    7    1        -0.1030570276E+01      0.2610301485E+01
          0                 2           2             4    7     1       0.1911884881E-02       4    7    1         0.1030566294E+00      0.2596321520E+00
          0                 3           2             4    7     1      -0.1301923318E-03       4    7    1        -0.7213970953E-02      0.1804603589E-01
          0                 4           1             4    7     1       0.5180474460E-05       4    7    1         0.2950518101E-03      0.7300629659E-03

    ------------------------------------------------
       NWT REQUIRED            4 OUTER ITERATIONS 
       AND A TOTAL OF          7 INNER ITERATIONS.
    ------------------------------------------------

 NO OUTPUT CONTROL FOR STRESS PERIOD    6   TIME STEP    8
 
 SOLVING FOR HEAD 
                                                   Max.-Head-Change                         Max.-Flux-Residual
  Residual-Control   Outer-Iter.   Inner-Iter.     Column Row Layer    Maximum-Head-Change  Column Row Layer    Maximum-Flux-Residual          L2-NORM 
          0                 1           2             4    7     1      -0.1947434233E-01       4    7    1        -0.1021274370E+01      0.2544154514E+01
          0                 2           2             4    7     1       0.1894316404E-02       4    7    1         0.1021270365E+00      0.2532439634E+00
          0                 3           2             4    7     1      -0.1289959837E-03       4    7    1        -0.7148899439E-02      0.1762004545E-01
          0                 4           1             4    7     1       0.5132870579E-05       4    7    1         0.2923903655E-03      0.7140636502E-03

    ------------------------------------------------
       NWT REQUIRED            4 OUTER ITERATIONS 
       AND A TOTAL OF          7 INNER ITERATIONS.
    ------------------------------------------------

 NO OUTPUT CONTROL FOR STRESS PERIOD    6   TIME STEP    9
 
 SOLVING FOR HEAD 
                                                   Max.-Head-Change                         Max.-Flux-Residual
  Residual-Control   Outer-Iter.   Inner-Iter.     Column Row Layer    Maximum-Head-Change  Column Row Layer    Maximum-Flux-Residual          L2-NORM 
          0                 1           2             4    7     1      -0.1929218662E-01       4    7    1        -0.1011880130E+01      0.2485409630E+01
          0                 2           2             4    7     1       0.1876597350E-02       4    7    1         0.1011876112E+00      0.2475561545E+00
          0                 3           2             4    7     1      -0.1277893822E-03       4    7    1        -0.7083139659E-02      0.1723849018E-01
          0                 4           1             4    7     1       0.5084858916E-05       4    7    1         0.2897008017E-03      0.6986332129E-03

    ------------------------------------------------
       NWT REQUIRED            4 OUTER ITERATIONS 
       AND A TOTAL OF          7 INNER ITERATIONS.
    ------------------------------------------------

 NO OUTPUT CONTROL FOR STRESS PERIOD    6   TIME STEP   10
 
 SOLVING FOR HEAD 
                                                   Max.-Head-Change                         Max.-Flux-Residual
  Residual-Control   Outer-Iter.   Inner-Iter.     Column Row Layer    Maximum-Head-Change  Column Row Layer    Maximum-Flux-Residual          L2-NORM 
          0                 1           2             4    7     1      -0.1910880685E-01       4    7    1        -0.1002405773E+01      0.2432825485E+01
          0                 2           2             4    7     1       0.1858759755E-02       4    7    1         0.1002401752E+00      0.2424577912E+00
          0                 3           2             4    7     1      -0.1265747080E-03       4    7    1        -0.7016819102E-02      0.1689648168E-01
          0                 4           1             4    7     1       0.5036526046E-05       4    7    1         0.2869882869E-03      0.6862950982E-03

    ------------------------------------------------
       NWT REQUIRED            4 OUTER ITERATIONS 
       AND A TOTAL OF          7 INNER ITERATIONS.
    ------------------------------------------------

 NO OUTPUT CONTROL FOR STRESS PERIOD    6   TIME STEP   11
 
 SOLVING FOR HEAD 
                                                   Max.-Head-Change                         Max.-Flux-Residual
  Residual-Control   Outer-Iter.   Inner-Iter.     Column Row Layer    Maximum-Head-Change  Column Row Layer    Maximum-Flux-Residual          L2-NORM 
          0                 1           2             4    7     1      -0.1892505053E-01       4    7    1        -0.9928975607E+00      0.2385432925E+01
          0                 2           2             4    7     1       0.1840885287E-02       4    7    1         0.9928935427E-01      0.2378497012E+00
          0                 3           2             4    7     1      -0.1253575229E-03       4    7    1        -0.6950261600E-02      0.1658589998E-01
          0                 4           1             4    7     1       0.4988093016E-05       4    7    1         0.2842660849E-03      0.6742504312E-03

    ------------------------------------------------
       NWT REQUIRED            4 OUTER ITERATIONS 
       AND A TOTAL OF          7 INNER ITERATIONS.
    ------------------------------------------------

 NO OUTPUT CONTROL FOR STRESS PERIOD    6   TIME STEP   12
 
 SOLVING FOR HEAD 
                                                   Max.-Head-Change                         Max.-Flux-Residual
  Residual-Control   Outer-Iter.   Inner-Iter.     Column Row Layer    Maximum-Head-Change  Column Row Layer    Maximum-Flux-Residual          L2-NORM 
          0                 1           2             4    7     1      -0.1874061416E-01       4    7    1        -0.9833402039E+00      0.2342379093E+01
          0                 2           2             4    7     1       0.1822944679E-02       4    7    1         0.9833361969E-01      0.2336542371E+00
          0                 3           2             4    7     1      -0.1241358337E-03       4    7    1        -0.6883360150E-02      0.1630240975E-01
          0                 4           1             4    7     1       0.4939480617E-05       4    7    1         0.2815297976E-03      0.6636023926E-03

    ------------------------------------------------
       NWT REQUIRED            4 OUTER ITERATIONS 
       AND A TOTAL OF          7 INNER ITERATIONS.
    ------------------------------------------------

 NO OUTPUT CONTROL FOR STRESS PERIOD    6   TIME STEP   13
 
 SOLVING FOR HEAD 
                                                   Max.-Head-Change                         Max.-Flux-Residual
  Residual-Control   Outer-Iter.   Inner-Iter.     Column Row Layer    Maximum-Head-Change  Column Row Layer    Maximum-Flux-Residual          L2-NORM 
          0                 1           2             4    7     1      -0.1855576871E-01       4    7    1        -0.9737475893E+00      0.2303007565E+01
          0                 2           2             4    7     1       0.1804964287E-02       4    7    1         0.9737436000E-01      0.2298083517E+00
          0                 3           2             4    7     1      -0.1229114355E-03       4    7    1        -0.6816211922E-02      0.1604145693E-01
          0                 4           1             4    7     1       0.4890760919E-05       4    7    1         0.2787834410E-03      0.6533495936E-03

    ------------------------------------------------
       NWT REQUIRED            4 OUTER ITERATIONS 
       AND A TOTAL OF          7 INNER ITERATIONS.
    ------------------------------------------------

 NO OUTPUT CONTROL FOR STRESS PERIOD    6   TIME STEP   14
 
 SOLVING FOR HEAD 
                                                   Max.-Head-Change                         Max.-Flux-Residual
  Residual-Control   Outer-Iter.   Inner-Iter.     Column Row Layer    Maximum-Head-Change  Column Row Layer    Maximum-Flux-Residual          L2-NORM 
          0                 1           2             4    7     1      -0.1837102124E-01       4    7    1        -0.9641485828E+00      0.2266760090E+01
          0                 2           2             4    7     1       0.1786993435E-02       4    7    1         0.9641446169E-01      0.2262589790E+00
          0                 3           2             4    7     1      -0.1216876866E-03       4    7    1        -0.6749018993E-02      0.1579955351E-01
          0                 4           1             4    7     1       0.4842066549E-05       4    7    1         0.2760352324E-03      0.6437009715E-03

    ------------------------------------------------
       NWT REQUIRED            4 OUTER ITERATIONS 
       AND A TOTAL OF          7 INNER ITERATIONS.
    ------------------------------------------------

 NO OUTPUT CONTROL FOR STRESS PERIOD    6   TIME STEP   15
 
 SOLVING FOR HEAD 
                                                   Max.-Head-Change                         Max.-Flux-Residual
  Residual-Control   Outer-Iter.   Inner-Iter.     Column Row Layer    Maximum-Head-Change  Column Row Layer    Maximum-Flux-Residual          L2-NORM 
          0                 1           2             4    7     1      -0.1818657022E-01       4    7    1        -0.9545546582E+00      0.2233182890E+01
          0                 2           2             4    7     1       0.1769051427E-02       4    7    1         0.9545507206E-01      0.2229653412E+00
          0                 3           2             4    7     1      -0.1204659020E-03       4    7    1        -0.6681861654E-02      0.1557509421E-01
          0                 4           1             4    7     1       0.4793450927E-05       4    7    1         0.2732885132E-03      0.6349866255E-03

    ------------------------------------------------
       NWT REQUIRED            4 OUTER ITERATIONS 
       AND A TOTAL OF          7 INNER ITERATIONS.
    ------------------------------------------------

 NO OUTPUT CONTROL FOR STRESS PERIOD    6   TIME STEP   16
 
 SOLVING FOR HEAD 
                                                   Max.-Head-Change                         Max.-Flux-Residual
  Residual-Control   Outer-Iter.   Inner-Iter.     Column Row Layer    Maximum-Head-Change  Column Row Layer    Maximum-Flux-Residual          L2-NORM 
          0                 1           2             4    7     1      -0.1800261332E-01       4    7    1        -0.9449761060E+00      0.2201916115E+01
          0                 2           2             4    7     1       0.1751157489E-02       4    7    1         0.9449722013E-01      0.2198915880E+00
          0                 3           1             4    7     1      -0.1192473934E-03       4    7    1        -0.6614811962E-02      0.1536468908E-01
          0                 4           1             4    7     1       0.4744967931E-05       4    7    1         0.2705461700E-03      0.6266144140E-03

    ------------------------------------------------
       NWT REQUIRED            4 OUTER ITERATIONS 
       AND A TOTAL OF          6 INNER ITERATIONS.
    ------------------------------------------------

 NO OUTPUT CONTROL FOR STRESS PERIOD    6   TIME STEP   17
 
 SOLVING FOR HEAD 
                                                   Max.-Head-Change                         Max.-Flux-Residual
  Residual-Control   Outer-Iter.   Inner-Iter.     Column Row Layer    Maximum-Head-Change  Column Row Layer    Maximum-Flux-Residual          L2-NORM 
          0                 1           2             4    7     1      -0.1781905645E-01       4    7    1        -0.9354083602E+00      0.2172646503E+01
          0                 2           2             4    7     1       0.1733302470E-02       4    7    1         0.9354044927E-01      0.2170093922E+00
          0                 3           1             4    7     1      -0.1180315321E-03       4    7    1        -0.6547837925E-02      0.1516709620E-01
          0                 4           1             4    7     1       0.4696587860E-05       4    7    1         0.2678069238E-03      0.6187789775E-03

    ------------------------------------------------
       NWT REQUIRED            4 OUTER ITERATIONS 
       AND A TOTAL OF          6 INNER ITERATIONS.
    ------------------------------------------------

 NO OUTPUT CONTROL FOR STRESS PERIOD    6   TIME STEP   18
 
 SOLVING FOR HEAD 
                                                   Max.-Head-Change                         Max.-Flux-Residual
  Residual-Control   Outer-Iter.   Inner-Iter.     Column Row Layer    Maximum-Head-Change  Column Row Layer    Maximum-Flux-Residual          L2-NORM 
          0                 1           2             4    7     1      -0.1763633561E-01       4    7    1        -0.9258761729E+00      0.2145105877E+01
          0                 2           2             4    7     1       0.1715528778E-02       4    7    1         0.9258723462E-01      0.2142927380E+00
          0                 3           1             4    7     1      -0.1168212096E-03       4    7    1        -0.6481112845E-02      0.1498059303E-01
          0                 4           1             4    7     1       0.4648428373E-05       4    7    1         0.2650778820E-03      0.6114417921E-03

    ------------------------------------------------
       NWT REQUIRED            4 OUTER ITERATIONS 
       AND A TOTAL OF          6 INNER ITERATIONS.
    ------------------------------------------------

 NO OUTPUT CONTROL FOR STRESS PERIOD    6   TIME STEP   19
 
 SOLVING FOR HEAD 
                                                   Max.-Head-Change                         Max.-Flux-Residual
  Residual-Control   Outer-Iter.   Inner-Iter.     Column Row Layer    Maximum-Head-Change  Column Row Layer    Maximum-Flux-Residual          L2-NORM 
          0                 1           2             4    7     1      -0.1745432495E-01       4    7    1        -0.9163725208E+00      0.2119084369E+01
          0                 2           2             4    7     1       0.1697824173E-02       4    7    1         0.9163687383E-01      0.2117220862E+00
          0                 3           1             4    7     1      -0.1156155907E-03       4    7    1        -0.6414587526E-02      0.1480334971E-01
          0                 4           1             4    7     1       0.4600454932E-05       4    7    1         0.2623569626E-03      0.6043839256E-03

    ------------------------------------------------
       NWT REQUIRED            4 OUTER ITERATIONS 
       AND A TOTAL OF          6 INNER ITERATIONS.
    ------------------------------------------------

 NO OUTPUT CONTROL FOR STRESS PERIOD    6   TIME STEP   20
 
 SOLVING FOR HEAD 
                                                   Max.-Head-Change                         Max.-Flux-Residual
  Residual-Control   Outer-Iter.   Inner-Iter.     Column Row Layer    Maximum-Head-Change  Column Row Layer    Maximum-Flux-Residual          L2-NORM 
          0                 1           2             4    7     1      -0.1727344338E-01       4    7    1        -0.9069205070E+00      0.2094411375E+01
          0                 2           2             4    7     1       0.1680229401E-02       4    7    1         0.9069167712E-01      0.2092811835E+00
          0                 3           1             4    7     1      -0.1144174514E-03       4    7    1        -0.6348423674E-02      0.1463498045E-01
          0                 4           1             4    7     1       0.4552780362E-05       4    7    1         0.2596508800E-03      0.5976521876E-03

    ------------------------------------------------
       NWT REQUIRED            4 OUTER ITERATIONS 
       AND A TOTAL OF          6 INNER ITERATIONS.
    ------------------------------------------------

 NO OUTPUT CONTROL FOR STRESS PERIOD    6   TIME STEP   21
 
 SOLVING FOR HEAD 
                                                   Max.-Head-Change                         Max.-Flux-Residual
  Residual-Control   Outer-Iter.   Inner-Iter.     Column Row Layer    Maximum-Head-Change  Column Row Layer    Maximum-Flux-Residual          L2-NORM 
          0                 1           2             4    7     1      -0.1709353983E-01       4    7    1        -0.8975122246E+00      0.2070933373E+01
          0                 2           2             4    7     1       0.1662729766E-02       4    7    1         0.8975085380E-01      0.2069557072E+00
          0                 3           1             4    7     1      -0.1132257904E-03       4    7    1        -0.6282565961E-02      0.1447424934E-01
          0                 4           1             4    7     1       0.4505362988E-05       4    7    1         0.2569572900E-03      0.5911867900E-03

    ------------------------------------------------
       NWT REQUIRED            4 OUTER ITERATIONS 
       AND A TOTAL OF          6 INNER ITERATIONS.
    ------------------------------------------------

 NO OUTPUT CONTROL FOR STRESS PERIOD    6   TIME STEP   22
 
 SOLVING FOR HEAD 
                                                   Max.-Head-Change                         Max.-Flux-Residual
  Residual-Control   Outer-Iter.   Inner-Iter.     Column Row Layer    Maximum-Head-Change  Column Row Layer    Maximum-Flux-Residual          L2-NORM 
          0                 1           2             4    7     1      -0.1691527569E-01       4    7    1        -0.8881842781E+00      0.2048533710E+01
          0                 2           2             4    7     1       0.1645389605E-02       4    7    1         0.8881806424E-01      0.2047347947E+00
          0                 3           1             4    7     1      -0.1120449893E-03       4    7    1        -0.6217270638E-02      0.1431066441E-01
          0                 4           1             4    7     1       0.4458378033E-05       4    7    1         0.2542867064E-03      0.5894105201E-03

    ------------------------------------------------
       NWT REQUIRED            4 OUTER ITERATIONS 
       AND A TOTAL OF          6 INNER ITERATIONS.
    ------------------------------------------------

 NO OUTPUT CONTROL FOR STRESS PERIOD    6   TIME STEP   23
 
 SOLVING FOR HEAD 
                                                   Max.-Head-Change                         Max.-Flux-Residual
  Residual-Control   Outer-Iter.   Inner-Iter.     Column Row Layer    Maximum-Head-Change  Column Row Layer    Maximum-Flux-Residual          L2-NORM 
          0                 1           2             4    7     1      -0.1673818923E-01       4    7    1        -0.8789117124E+00      0.2027088875E+01
          0                 2           2             4    7     1       0.1628164002E-02       4    7    1         0.8789081297E-01      0.2026061571E+00
          0                 3           1             4    7     1      -0.1108719881E-03       4    7    1        -0.6152362937E-02      0.1417300800E-01
          0                 4           1             4    7     1       0.4411703231E-05       4    7    1         0.2516319635E-03      0.5791281387E-03

    ------------------------------------------------
       NWT REQUIRED            4 OUTER ITERATIONS 
       AND A TOTAL OF          6 INNER ITERATIONS.
    ------------------------------------------------

 NO OUTPUT CONTROL FOR STRESS PERIOD    6   TIME STEP   24
 
 SOLVING FOR HEAD 
                                                   Max.-Head-Change                         Max.-Flux-Residual
  Residual-Control   Outer-Iter.   Inner-Iter.     Column Row Layer    Maximum-Head-Change  Column Row Layer    Maximum-Flux-Residual          L2-NORM 
          0                 1           2             4    7     1      -0.1656238706E-01       4    7    1        -0.8697002111E+00      0.2006523133E+01
          0                 2           2             4    7     1       0.1611063328E-02       4    7    1         0.8696966830E-01      0.2005635556E+00
          0                 3           1             4    7     1      -0.1097074952E-03       4    7    1        -0.6087882746E-02      0.1403130070E-01
          0                 4           1             4    7     1       0.4365366905E-05       4    7    1         0.2489947392E-03      0.5733635263E-03

    ------------------------------------------------
       NWT REQUIRED            4 OUTER ITERATIONS 
       AND A TOTAL OF          6 INNER ITERATIONS.
    ------------------------------------------------

 NO OUTPUT CONTROL FOR STRESS PERIOD    6   TIME STEP   25
 
 SOLVING FOR HEAD 
                                                   Max.-Head-Change                         Max.-Flux-Residual
  Residual-Control   Outer-Iter.   Inner-Iter.     Column Row Layer    Maximum-Head-Change  Column Row Layer    Maximum-Flux-Residual          L2-NORM 
          0                 1           2             4    7     1      -0.1638849312E-01       4    7    1        -0.8605849219E+00      0.1986738321E+01
          0                 2           2             4    7     1       0.1594148275E-02       4    7    1         0.8605814492E-01      0.1985964509E+00
          0                 3           1             4    7     1      -0.1085556424E-03       4    7    1        -0.6024076054E-02      0.1389465084E-01
          0                 4           1             4    7     1       0.4319533686E-05       4    7    1         0.2463850326E-03      0.5677946358E-03

    ------------------------------------------------
       NWT REQUIRED            4 OUTER ITERATIONS 
       AND A TOTAL OF          6 INNER ITERATIONS.
    ------------------------------------------------

 NO OUTPUT CONTROL FOR STRESS PERIOD    6   TIME STEP   26
 
 SOLVING FOR HEAD 
                                                   Max.-Head-Change                         Max.-Flux-Residual
  Residual-Control   Outer-Iter.   Inner-Iter.     Column Row Layer    Maximum-Head-Change  Column Row Layer    Maximum-Flux-Residual          L2-NORM 
          0                 1           2             4    7     1      -0.1621602058E-01       4    7    1        -0.8515389552E+00      0.1967672086E+01
          0                 2           2             4    7     1       0.1577371485E-02       4    7    1         0.8515355389E-01      0.1966997284E+00
          0                 3           1             4    7     1      -0.1074132042E-03       4    7    1        -0.5960754577E-02      0.1376281896E-01
          0                 4           1             4    7     1       0.4274075323E-05       4    7    1         0.2437951960E-03      0.5624918309E-03

    ------------------------------------------------
       NWT REQUIRED            4 OUTER ITERATIONS 
       AND A TOTAL OF          6 INNER ITERATIONS.
    ------------------------------------------------

 NO OUTPUT CONTROL FOR STRESS PERIOD    6   TIME STEP   27
 
 SOLVING FOR HEAD 
                                                   Max.-Head-Change                         Max.-Flux-Residual
  Residual-Control   Outer-Iter.   Inner-Iter.     Column Row Layer    Maximum-Head-Change  Column Row Layer    Maximum-Flux-Residual          L2-NORM 
          0                 1           2             4    7     1      -0.1604531959E-01       4    7    1        -0.8425814982E+00      0.1949284212E+01
          0                 2           2             4    7     1       0.1560767020E-02       4    7    1         0.8425781389E-01      0.1948693931E+00
          0                 3           1             4    7     1      -0.1062825007E-03       4    7    1        -0.5898052686E-02      0.1363546544E-01
          0                 4           1             4    7     1       0.4229083226E-05       4    7    1         0.2412306794E-03      0.5573311902E-03

    ------------------------------------------------
       NWT REQUIRED            4 OUTER ITERATIONS 
       AND A TOTAL OF          6 INNER ITERATIONS.
    ------------------------------------------------

 NO OUTPUT CONTROL FOR STRESS PERIOD    6   TIME STEP   28
 
 SOLVING FOR HEAD 
                                                   Max.-Head-Change                         Max.-Flux-Residual
  Residual-Control   Outer-Iter.   Inner-Iter.     Column Row Layer    Maximum-Head-Change  Column Row Layer    Maximum-Flux-Residual          L2-NORM 
          0                 1           2             4    7     1      -0.1587616727E-01       4    7    1        -0.8337010883E+00      0.1931494779E+01
          0                 2           2             4    7     1       0.1544313199E-02       4    7    1         0.8336977869E-01      0.1930978069E+00
          0                 3           1             4    7     1      -0.1051620561E-03       4    7    1        -0.5835890164E-02      0.1351206073E-01
          0                 4           1             4    7     1       0.4184500293E-05       4    7    1         0.2386882372E-03      0.5522269840E-03

    ------------------------------------------------
       NWT REQUIRED            4 OUTER ITERATIONS 
       AND A TOTAL OF          6 INNER ITERATIONS.
    ------------------------------------------------

 NO OUTPUT CONTROL FOR STRESS PERIOD    6   TIME STEP   29
 
 SOLVING FOR HEAD 
                                                   Max.-Head-Change                         Max.-Flux-Residual
  Residual-Control   Outer-Iter.   Inner-Iter.     Column Row Layer    Maximum-Head-Change  Column Row Layer    Maximum-Flux-Residual          L2-NORM 
          0                 1           2             4    7     1      -0.1570892150E-01       4    7    1        -0.8249157859E+00      0.1901051539E+01
          0                 2           2             4    7     1       0.1528044834E-02       4    7    1         0.8249125429E-01      0.1900934741E+00
          0                 3           1             4    7     1      -0.1040542398E-03       4    7    1        -0.5774393376E-02      0.1330556152E-01
          0                 4           1             4    7     1       0.4140418856E-05       4    7    1         0.2361730069E-03      0.5441298062E-03

    ------------------------------------------------
       NWT REQUIRED            4 OUTER ITERATIONS 
       AND A TOTAL OF          6 INNER ITERATIONS.
    ------------------------------------------------

 NO OUTPUT CONTROL FOR STRESS PERIOD    6   TIME STEP   30



 STREAM LISTING     PERIOD      6   STEP       30

 LAYER ROW COL. STREAM  RCH.  FLOW INTO     FLOW TO   FLOW OUT OF   OVRLND.     DIRECT     STREAM       STREAM     STREAM     STREAM   STREAMBED  STREAMBED
                SEG.NO.  NO.  STRM. RCH.    AQUIFER    STRM. RCH.    RUNOFF     PRECIP       ET          HEAD       DEPTH      WIDTH   CONDCTNC.   GRADIENT

   1    1    1     1     1    9.2355E+01  4.5966E-01   9.1895E+01  0.000E+00  0.000E+00  0.000E+00  1.09482E+03  1.771E+00  2.141E+01  9.635E-02  1.590E+00
   1    2    2     1     2    9.1895E+01  7.1318E-01   9.1182E+01  0.000E+00  0.000E+00  0.000E+00  1.08983E+03  1.769E+00  2.136E+01  1.496E-01  1.590E+00
   1    3    3     1     3    9.1182E+01  6.0950E-01   9.0573E+01  0.000E+00  0.000E+00  0.000E+00  1.08418E+03  1.766E+00  2.131E+01  1.279E-01  1.589E+00
   1    3    4     1     4    9.0573E+01  5.6231E-01   9.0010E+01  0.000E+00  0.000E+00  0.000E+00  1.07917E+03  1.764E+00  2.127E+01  1.180E-01  1.588E+00
   1    4    5     2     1    8.8010E+01  4.3413E-01   8.7576E+01  0.000E+00  0.000E+00  0.000E+00  1.07450E+03  2.566E+00  1.200E+01  7.800E-02  1.855E+00
   1    5    6     2     2    8.7576E+01  3.3354E-01   8.7243E+01  0.000E+00  0.000E+00  0.000E+00  1.06907E+03  2.559E+00  1.200E+01  6.000E-02  1.853E+00
   1    6    6     2     3    8.7243E+01  3.3319E-01   8.6909E+01  0.000E+00  0.000E+00  0.000E+00  1.06435E+03  2.553E+00  1.200E+01  6.000E-02  1.851E+00
   1    7    6     2     4    8.6909E+01  3.3284E-01   8.6576E+01  0.000E+00  0.000E+00  0.000E+00  1.05962E+03  2.547E+00  1.200E+01  6.000E-02  1.849E+00
   1    8    6     2     5    8.6576E+01  3.3249E-01   8.6244E+01  0.000E+00  0.000E+00  0.000E+00  1.05490E+03  2.541E+00  1.200E+01  6.000E-02  1.847E+00
   1    3    5     3     1    2.0000E+00  2.8252E-01   1.7175E+00  0.000E+00  0.000E+00  0.000E+00  1.07555E+03  1.909E+00  9.636E+00  7.227E-02  1.955E+00
   1    3    6     3     2    1.7175E+00  2.4905E-01   1.4684E+00  0.000E+00  0.000E+00  0.000E+00  1.07264E+03  1.727E+00  8.909E+00  6.682E-02  1.864E+00
   1    3    7     3     3    1.4684E+00  1.9718E-01   1.2712E+00  0.000E+00  0.000E+00  0.000E+00  1.06987E+03  1.555E+00  8.218E+00  5.547E-02  1.777E+00
   1    4    8     3     4    1.2712E+00  2.2567E-01   1.0456E+00  0.000E+00  0.000E+00  0.000E+00  1.06682E+03  1.364E+00  7.455E+00  6.709E-02  1.682E+00
   1    5    8     3     5    1.0456E+00  1.5790E-01   8.8768E-01  0.000E+00  0.000E+00  0.000E+00  1.06362E+03  1.164E+00  6.655E+00  4.991E-02  1.582E+00
   1    6    8     3     6    8.8768E-01  5.5980E-02   8.3170E-01  0.000E+00  0.000E+00  0.000E+00  1.06158E+03  1.036E+00  6.145E+00  1.844E-02  1.518E+00
   1    5   10     4     1    1.0000E+01  9.0919E-02   9.9091E+00  0.000E+00  0.000E+00  0.000E+00  1.07836E+03  6.368E-01  1.000E+01  2.500E-02  1.212E+00
   1    5    9     4     2    9.9091E+00  1.8158E-01   9.7275E+00  0.000E+00  0.000E+00  0.000E+00  1.07154E+03  6.315E-01  1.000E+01  5.000E-02  1.211E+00
   1    6    8     4     3    9.7275E+00  1.2689E-01   9.6006E+00  0.000E+00  0.000E+00  0.000E+00  1.06381E+03  6.256E-01  1.000E+01  3.500E-02  1.209E+00
   1    6    8     5     1    1.0432E+01  2.2686E-01   1.0205E+01  0.000E+00  0.000E+00  0.000E+00  1.05868E+03  6.790E-01  1.542E+01  6.166E-02  1.226E+00
   1    7    7     5     2    1.0205E+01  2.7894E-01   9.9265E+00  0.000E+00  0.000E+00  0.000E+00  1.05417E+03  6.732E-01  1.519E+01  7.594E-02  1.224E+00
   1    8    7     5     3    9.9265E+00  1.9221E-01   9.7343E+00  0.000E+00  0.000E+00  0.000E+00  1.04992E+03  6.676E-01  1.497E+01  5.241E-02  1.223E+00
   1    8    6     5     4    9.7343E+00  1.3577E-01   9.5985E+00  0.000E+00  0.000E+00  0.000E+00  1.04691E+03  6.637E-01  1.482E+01  3.706E-02  1.221E+00
   1    9    6     6     1    9.5843E+01  3.4390E-01   9.5499E+01  0.000E+00  0.000E+00  0.000E+00  1.04546E+03  2.732E+00  1.200E+01  6.000E-02  1.911E+00
   1   10    7     6     2    9.5499E+01  3.4355E-01   9.5155E+01  0.000E+00  0.000E+00  0.000E+00  1.04091E+03  2.726E+00  1.200E+01  6.000E-02  1.909E+00
   1   11    7     6     3    9.5155E+01  3.4320E-01   9.4812E+01  0.000E+00  0.000E+00  0.000E+00  1.03636E+03  2.720E+00  1.200E+01  6.000E-02  1.907E+00
   1   12    7     6     4    9.4812E+01  3.4284E-01   9.4469E+01  0.000E+00  0.000E+00  0.000E+00  1.03180E+03  2.714E+00  1.200E+01  6.000E-02  1.905E+00
   1   13    7     6     5    9.4469E+01  3.3805E-02   9.4435E+01  0.000E+00  0.000E+00  0.000E+00  1.02862E+03  2.711E+00  1.200E+01  2.400E-02  4.695E-01
   1   14    9     7     1    1.5000E+02  1.3319E+00   1.4867E+02  0.000E+00  0.000E+00  0.000E+00  1.03987E+03  2.288E+00  5.529E+01  5.593E-01  7.938E-01
   1   13    8     7     2    1.4867E+02  1.8070E+00   1.4686E+02  0.000E+00  0.000E+00  0.000E+00  1.03478E+03  2.279E+00  5.526E+01  6.148E-01  9.797E-01
   1   13    7     7     3    1.4686E+02  1.3844E+00   1.4548E+02  0.000E+00  0.000E+00  0.000E+00  1.02969E+03  2.271E+00  5.522E+01  5.585E-01  8.263E-01
   1   13    6     8     1    2.3991E+02  1.1021E+00   2.3881E+02  0.000E+00  0.000E+00  0.000E+00  1.02523E+03  3.356E+00  4.867E+01  4.959E-01  7.407E-01
   1   13    5     8     2    2.3881E+02  2.5269E-01   2.3856E+02  0.000E+00  0.000E+00  0.000E+00  1.01898E+03  3.353E+00  4.862E+01  4.954E-01  1.700E-01
   1   13    4     8     3    2.3856E+02 -2.1548E+00   2.4071E+02  0.000E+00  0.000E+00  0.000E+00  1.01273E+03  3.358E+00  4.869E+01  4.962E+00 -1.448E-01
   1   13    3     8     4    2.4071E+02 -3.3590E+00   2.4407E+02  0.000E+00  0.000E+00  0.000E+00  1.00650E+03  3.372E+00  4.890E+01  4.983E+00 -2.247E-01
   1   13    2     8     5    2.4407E+02 -2.5225E+00   2.4659E+02  0.000E+00  0.000E+00  0.000E+00  1.00026E+03  3.388E+00  4.912E+01  5.005E+00 -1.680E-01
   1   13    1     8     6    2.4659E+02 -1.8906E+00   2.4848E+02  0.000E+00  0.000E+00  0.000E+00  9.95274E+02  3.399E+00  4.928E+01  3.013E+00 -2.091E-01





UNSATURATED ZONE PACKAGE VOLUMETRIC BUDGET FOR  TIME STEP    30 STRESS PERIOD    6
  ------------------------------------------------------------------------------



     CUMULATIVE VOLUMES      L**3       RATES FOR THIS TIME STEP      L**3/T
     ------------------                 ------------------------

           IN:                                      IN:
           ---                                      ---
        INFILTRATION =    40647706.6210          INFILTRATION =           8.3175

          OUT:                                     OUT:
          ----                                     ----
              UZF ET =    40573737.9966                UZF ET =           8.3175
        UZF RECHARGE =       73224.0000          UZF RECHARGE =       0.0000E+00

            IN - OUT =         744.6245              IN - OUT =       0.0000E+00

          STORAGE:                                 STORAGE:
          --------                                 --------
      STORAGE CHANGE =         744.6690        STORAGE CHANGE =       8.4371E-15

 PERCENT DISCREPANCY IS DIFFERENCE BETWEEN IN-OUT MINUS CHANGE IN STORAGE
 DIVIDED BY THE AVERAGE OF IN AND OUT TIMES 100

 PERCENT DISCREPANCY =           0.00     PERCENT DISCREPANCY =           0.00






1
  VOLUMETRIC BUDGET FOR AGRICULTURAL FIELDS AT  END OF TIME STEP   30, STRESS PERIOD   6
  ------------------------------------------------------------------------------

     CUMULATIVE VOLUMES      L**3       RATES FOR THIS TIME STEP      L**3/T
     ------------------                 ------------------------

           IN:                                      IN:
           ---                                      ---
               AG WELLS  =    29429858.0000                 AG WELLS  =           7.4700
      DIVERSION SEGMENTS =           0.0000        DIVERSION SEGMENTS =           0.0000
           GW IRRIGATION =           0.0000             GW IRRIGATION =           0.0000
           SW IRRIGATION =           0.0000             SW IRRIGATION =           0.0000
        SYSTEM LOSSES GW =           0.0000          SYSTEM LOSSES GW =           0.0000
        SYSTEM LOSSES SW =           0.0000          SYSTEM LOSSES SW =           0.0000

                TOTAL IN =    29429858.0000                  TOTAL IN =           7.4700

          OUT:                                     OUT:
          ----                                     ----
               AG WELLS  =           0.0000                 AG WELLS  =           0.0000
      DIVERSION SEGMENTS =           0.0000        DIVERSION SEGMENTS =           0.0000
           GW IRRIGATION =    29429858.0000             GW IRRIGATION =           7.4700
           SW IRRIGATION =           0.0000             SW IRRIGATION =           0.0000
        SYSTEM LOSSES GW =           0.0000          SYSTEM LOSSES GW =           0.0000
        SYSTEM LOSSES SW =           0.0000          SYSTEM LOSSES SW =           0.0000

               TOTAL OUT =    29429858.0000                 TOTAL OUT =           7.4700

                IN - OUT =           0.0000                  IN - OUT =           0.0000

     PERCENT DISCREPANCY =           0.00         PERCENT DISCREPANCY =           0.00



1
  VOLUMETRIC BUDGET FOR ENTIRE MODEL AT END OF TIME STEP   30, STRESS PERIOD   6
  ------------------------------------------------------------------------------

     CUMULATIVE VOLUMES      L**3       RATES FOR THIS TIME STEP      L**3/T
     ------------------                 ------------------------

           IN:                                      IN:
           ---                                      ---
             STORAGE     =    36217668.0000               STORAGE     =           7.0072
       CONSTANT HEAD     =           0.0000         CONSTANT HEAD     =           0.0000
     HEAD DEP BOUNDS     =     3778269.5000       HEAD DEP BOUNDS     =           0.2855
      STREAM LEAKAGE     =   166669760.0000        STREAM LEAKAGE     =          13.7976
        UZF RECHARGE     =       73223.9531          UZF RECHARGE     =           0.0000
               GW ET     =           0.0000                 GW ET     =           0.0000
     SURFACE LEAKAGE     =           0.0000       SURFACE LEAKAGE     =           0.0000
           AG WELLS      =           0.0000             AG WELLS      =           0.0000

                TOTAL IN =   206738912.0000                  TOTAL IN =          21.0902

          OUT:                                     OUT:
          ----                                     ----
             STORAGE     =    36777196.0000               STORAGE     =           2.5503
       CONSTANT HEAD     =           0.0000         CONSTANT HEAD     =           0.0000
     HEAD DEP BOUNDS     =     3885196.5000       HEAD DEP BOUNDS     =           0.3003
      STREAM LEAKAGE     =   134603904.0000        STREAM LEAKAGE     =           9.9268
        UZF RECHARGE     =           0.0000          UZF RECHARGE     =           0.0000
               GW ET     =     2045195.2500                 GW ET     =           0.8429
     SURFACE LEAKAGE     =           0.0000       SURFACE LEAKAGE     =           0.0000
           AG WELLS      =    29429858.0000             AG WELLS      =           7.4700

               TOTAL OUT =   206741360.0000                 TOTAL OUT =          21.0903

                IN - OUT =       -2448.0000                  IN - OUT =      -1.3351E-05

     PERCENT DISCREPANCY =          -0.00         PERCENT DISCREPANCY =          -0.00






         TIME SUMMARY AT END OF TIME STEP   30 IN STRESS PERIOD    6
                    SECONDS     MINUTES      HOURS       DAYS        YEARS
                    -----------------------------------------------------------
   TIME STEP LENGTH  87667.      1461.1      24.352      1.0147     2.77799E-03
 STRESS PERIOD TIME 2.63000E+06  43833.      730.56      30.440     8.33397E-02
         TOTAL TIME 1.32364E+07 2.20607E+05  3676.8      153.20     0.41944    
1
1
                            STRESS PERIOD NO.    7, LENGTH =   2630000.    
                            -----------------------------------------------

                              NUMBER OF TIME STEPS =    30

                               MULTIPLIER FOR DELT =     1.000

                            INITIAL TIME STEP SIZE =   87666.66    

 REUSING NON-PARAMETER GHB CELLS FROM LAST STRESS PERIOD

      2 GHB CELLS

 REUSING STREAM SEGMENT DATA FROM LAST STRESS PERIOD



            AREAL INFILTRATION RATE
 READING ON UNIT   19 WITH FORMAT: (FREE)              

            1           2           3           4           5           6           7           8           9          10
 ........................................................................................................................
   1   1.0000E-10  2.0000E-10   0.000       0.000       0.000       0.000       0.000       0.000       0.000       0.000    
   2   2.0000E-10  1.0000E-10  2.0000E-10   0.000       0.000      8.0000E-10  8.0000E-10  5.0000E-10   0.000       0.000    
   3    0.000      5.0000E-10  1.0000E-10  1.0000E-10  8.0000E-10  8.0000E-10  5.0000E-10  5.0000E-10   0.000       0.000    
   4   8.0000E-10  5.0000E-10  1.0000E-10  1.0000E-10  1.0000E-10  1.0000E-10  1.0000E-10  1.0000E-10  2.0000E-10   0.000    
   5   8.0000E-10  5.0000E-10  1.0000E-10  1.0000E-10  1.0000E-10  1.0000E-10  1.0000E-10  1.0000E-10  1.0000E-10  1.0000E-10
   6   8.0000E-10  5.0000E-10  5.0000E-10  2.0000E-10  2.0000E-10  1.0000E-10  1.0000E-10  1.0000E-10  1.0000E-10  5.0000E-10
   7   8.0000E-10  5.0000E-10  5.0000E-10  2.0000E-10  2.0000E-10  1.0000E-10  1.0000E-10  2.0000E-10  2.0000E-10   0.000    
   8    0.000      5.0000E-10  5.0000E-10  2.0000E-10  2.0000E-10  1.0000E-10  1.0000E-10  2.0000E-10  5.0000E-10   0.000    
   9    0.000      5.0000E-10  5.0000E-10  2.0000E-10  2.0000E-10  1.0000E-10  1.0000E-10  2.0000E-10  5.0000E-10   0.000    
  10    0.000      5.0000E-10  5.0000E-10  2.0000E-10  2.0000E-10  1.0000E-10  1.0000E-10  2.0000E-10  5.0000E-10  8.0000E-10
  11    0.000      1.0000E-10  1.0000E-10  1.0000E-10  1.0000E-10  1.0000E-10  1.0000E-10  2.0000E-10  5.0000E-10   0.000    
  12   1.0000E-10  1.0000E-10  1.0000E-10  1.0000E-10  1.0000E-10  1.0000E-10  1.0000E-10  1.0000E-10  2.0000E-10   0.000    
  13   1.0000E-10  1.0000E-10  2.0000E-10  2.0000E-10  2.0000E-10  2.0000E-10  2.0000E-10  1.0000E-10  1.0000E-10   0.000    
  14    0.000      2.0000E-10  5.0000E-10  5.0000E-10  5.0000E-10  5.0000E-10  5.0000E-10  2.0000E-10  1.0000E-10   0.000    
  15    0.000       0.000      8.0000E-10  8.0000E-10  8.0000E-10  8.0000E-10   0.000       0.000       0.000       0.000    

                  ET RATE =  1.500000E-07

 USING ET EXTINCTION DEPTH FROM PREVIOUS STRESS PERIOD. CURRENT PERIOD IS:       7

 USING EXTINCTION WATER CONTENT FROM PREVIOUS STRESS PERIOD. CURRENT PERIOD IS:       7

 USING AIR ENTRY PRESSURE FROM PREVIOUS STRESS PERIOD. CURRENT PERIOD IS:       7

 USING ROOT PRESSURE HEAD FROM PREVIOUS STRESS PERIOD. CURRENT PERIOD IS:       7

 USING ROOT ACTIVITY FROM PREVIOUS STRESS PERIOD. CURRENT PERIOD IS:       7

 PROCESSING AG STRESS PERIOD DATA

 READING AG STRESS PERIOD DATA

 READING IRRIGATION WELL

 END PROCESSING AG STRESS PERIOD DATA OPTIONS
 
 SOLVING FOR HEAD 
                                                   Max.-Head-Change                         Max.-Flux-Residual
  Residual-Control   Outer-Iter.   Inner-Iter.     Column Row Layer    Maximum-Head-Change  Column Row Layer    Maximum-Flux-Residual          L2-NORM 
          0                 1           2             4    7     1      -0.6342410645E-01       4    7    1        -0.3316229458E+01      0.7964822970E+01
          0                 2           2             4    7     1       0.6161659047E-02       4    7    1         0.3312050796E+00      0.7948955299E+00
          0                 3           2             4    7     1      -0.4195908453E-03       4    7    1        -0.2318462800E-01      0.5559052052E-01
          0                 4           1             4    7     1       0.1669170675E-04       4    7    1         0.9480140629E-03      0.2270015535E-02

    ------------------------------------------------
       NWT REQUIRED            4 OUTER ITERATIONS 
       AND A TOTAL OF          7 INNER ITERATIONS.
    ------------------------------------------------

 NO OUTPUT CONTROL FOR STRESS PERIOD    7   TIME STEP    1
 
 SOLVING FOR HEAD 
                                                   Max.-Head-Change                         Max.-Flux-Residual
  Residual-Control   Outer-Iter.   Inner-Iter.     Column Row Layer    Maximum-Head-Change  Column Row Layer    Maximum-Flux-Residual          L2-NORM 
          0                 1           2             4    7     1      -0.6300567295E-01       4    7    1        -0.3295497764E+01      0.7788868750E+01
          0                 2           2             4    7     1       0.6128687496E-02       4    7    1         0.3295468299E+00      0.7784752035E+00
          0                 3           2             4    7     1      -0.4173456291E-03       4    7    1        -0.2306855209E-01      0.5445745586E-01
          0                 4           1             4    7     1       0.1660236774E-04       4    7    1         0.9432665629E-03      0.2224562403E-02

    ------------------------------------------------
       NWT REQUIRED            4 OUTER ITERATIONS 
       AND A TOTAL OF          7 INNER ITERATIONS.
    ------------------------------------------------

 NO OUTPUT CONTROL FOR STRESS PERIOD    7   TIME STEP    2
 
 SOLVING FOR HEAD 
                                                   Max.-Head-Change                         Max.-Flux-Residual
  Residual-Control   Outer-Iter.   Inner-Iter.     Column Row Layer    Maximum-Head-Change  Column Row Layer    Maximum-Flux-Residual          L2-NORM 
          0                 1           2             4    7     1      -0.6256949463E-01       4    7    1        -0.3273745149E+01      0.7636787040E+01
          0                 2           2             4    7     1       0.6086257149E-02       4    7    1         0.3273714217E+00      0.7633889785E+00
          0                 3           2             4    7     1      -0.4144563005E-03       4    7    1        -0.2291627487E-01      0.5341281491E-01
          0                 4           1             4    7     1       0.1648739878E-04       4    7    1         0.9370384050E-03      0.2182526577E-02

    ------------------------------------------------
       NWT REQUIRED            4 OUTER ITERATIONS 
       AND A TOTAL OF          7 INNER ITERATIONS.
    ------------------------------------------------

 NO OUTPUT CONTROL FOR STRESS PERIOD    7   TIME STEP    3
 
 SOLVING FOR HEAD 
                                                   Max.-Head-Change                         Max.-Flux-Residual
  Residual-Control   Outer-Iter.   Inner-Iter.     Column Row Layer    Maximum-Head-Change  Column Row Layer    Maximum-Flux-Residual          L2-NORM 
          0                 1           2             4    7     1      -0.6211762221E-01       4    7    1        -0.3251084392E+01      0.7502102713E+01
          0                 2           2             4    7     1       0.6042300469E-02       4    7    1         0.3251052180E+00      0.7500071598E+00
          0                 3           2             4    7     1      -0.4114630312E-03       4    7    1        -0.2275764172E-01      0.5248366923E-01
          0                 4           1             4    7     1       0.1636829375E-04       4    7    1         0.9305503124E-03      0.2145014413E-02

    ------------------------------------------------
       NWT REQUIRED            4 OUTER ITERATIONS 
       AND A TOTAL OF          7 INNER ITERATIONS.
    ------------------------------------------------

 NO OUTPUT CONTROL FOR STRESS PERIOD    7   TIME STEP    4
 
 SOLVING FOR HEAD 
                                                   Max.-Head-Change                         Max.-Flux-Residual
  Residual-Control   Outer-Iter.   Inner-Iter.     Column Row Layer    Maximum-Head-Change  Column Row Layer    Maximum-Flux-Residual          L2-NORM 
          0                 1           2             4    7     1      -0.6165149143E-01       4    7    1        -0.3227595110E+01      0.7380346979E+01
          0                 2           2             4    7     1       0.5996957094E-02       4    7    1         0.3227561792E+00      0.7378914606E+00
          0                 3           2             4    7     1      -0.4083753306E-03       4    7    1        -0.2259321000E-01      0.5164089477E-01
          0                 4           1             4    7     1       0.1624543073E-04       4    7    1         0.9238250177E-03      0.2110807545E-02

    ------------------------------------------------
       NWT REQUIRED            4 OUTER ITERATIONS 
       AND A TOTAL OF          7 INNER ITERATIONS.
    ------------------------------------------------

 OUTPUT CONTROL FOR STRESS PERIOD    7   TIME STEP    5
    PRINT BUDGET
    SAVE BUDGET
 UBDSV1 SAVING "         STORAGE" ON UNIT 102 AT TIME STEP  5, STRESS PERIOD   7
 UBDSV2 SAVING "   CONSTANT HEAD" ON UNIT 102 AT TIME STEP  5, STRESS PERIOD   7
 UBDSV1 SAVING "FLOW RIGHT FACE " ON UNIT 102 AT TIME STEP  5, STRESS PERIOD   7
 UBDSV1 SAVING "FLOW FRONT FACE " ON UNIT 102 AT TIME STEP  5, STRESS PERIOD   7

  HEAD DEP BOUNDS   PERIOD    7   STEP     5
 BOUNDARY      1   LAYER   1   ROW    13   COL     1   RATE   -0.300147    
 BOUNDARY      2   LAYER   1   ROW    14   COL     9   RATE    0.285491    



 STREAM LISTING     PERIOD      7   STEP        5

 LAYER ROW COL. STREAM  RCH.  FLOW INTO     FLOW TO   FLOW OUT OF   OVRLND.     DIRECT     STREAM       STREAM     STREAM     STREAM   STREAMBED  STREAMBED
                SEG.NO.  NO.  STRM. RCH.    AQUIFER    STRM. RCH.    RUNOFF     PRECIP       ET          HEAD       DEPTH      WIDTH   CONDCTNC.   GRADIENT

   1    1    1     1     1    8.3000E+01  4.4019E-01   8.2560E+01  0.000E+00  0.000E+00  0.000E+00  1.09478E+03  1.734E+00  2.066E+01  9.299E-02  1.578E+00
   1    2    2     1     2    8.2560E+01  6.8286E-01   8.1877E+01  0.000E+00  0.000E+00  0.000E+00  1.08979E+03  1.731E+00  2.062E+01  1.443E-01  1.577E+00
   1    3    3     1     3    8.1877E+01  5.8349E-01   8.1294E+01  0.000E+00  0.000E+00  0.000E+00  1.08415E+03  1.729E+00  2.057E+01  1.234E-01  1.576E+00
   1    3    4     1     4    8.1294E+01  5.3822E-01   8.0756E+01  0.000E+00  0.000E+00  0.000E+00  1.07913E+03  1.726E+00  2.052E+01  1.139E-01  1.575E+00
   1    4    5     2     1    7.8756E+01  4.2120E-01   7.8334E+01  0.000E+00  0.000E+00  0.000E+00  1.07433E+03  2.400E+00  1.200E+01  7.800E-02  1.800E+00
   1    5    6     2     2    7.8334E+01  3.2359E-01   7.8011E+01  0.000E+00  0.000E+00  0.000E+00  1.06890E+03  2.393E+00  1.200E+01  6.000E-02  1.798E+00
   1    6    6     2     3    7.8011E+01  3.2323E-01   7.7688E+01  0.000E+00  0.000E+00  0.000E+00  1.06418E+03  2.387E+00  1.200E+01  6.000E-02  1.796E+00
   1    7    6     2     4    7.7688E+01  3.2288E-01   7.7365E+01  0.000E+00  0.000E+00  0.000E+00  1.05946E+03  2.381E+00  1.200E+01  6.000E-02  1.794E+00
   1    8    6     2     5    7.7365E+01  3.2252E-01   7.7042E+01  0.000E+00  0.000E+00  0.000E+00  1.05473E+03  2.375E+00  1.200E+01  6.000E-02  1.792E+00
   1    3    5     3     1    2.0000E+00  2.8252E-01   1.7175E+00  0.000E+00  0.000E+00  0.000E+00  1.07555E+03  1.909E+00  9.636E+00  7.227E-02  1.955E+00
   1    3    6     3     2    1.7175E+00  2.4905E-01   1.4684E+00  0.000E+00  0.000E+00  0.000E+00  1.07264E+03  1.727E+00  8.909E+00  6.682E-02  1.864E+00
   1    3    7     3     3    1.4684E+00  1.9718E-01   1.2712E+00  0.000E+00  0.000E+00  0.000E+00  1.06987E+03  1.555E+00  8.218E+00  5.547E-02  1.777E+00
   1    4    8     3     4    1.2712E+00  2.2567E-01   1.0456E+00  0.000E+00  0.000E+00  0.000E+00  1.06682E+03  1.364E+00  7.455E+00  6.709E-02  1.682E+00
   1    5    8     3     5    1.0456E+00  1.5790E-01   8.8768E-01  0.000E+00  0.000E+00  0.000E+00  1.06362E+03  1.164E+00  6.655E+00  4.991E-02  1.582E+00
   1    6    8     3     6    8.8768E-01  5.5980E-02   8.3170E-01  0.000E+00  0.000E+00  0.000E+00  1.06158E+03  1.036E+00  6.145E+00  1.844E-02  1.518E+00
   1    5   10     4     1    1.0000E+01  9.0919E-02   9.9091E+00  0.000E+00  0.000E+00  0.000E+00  1.07836E+03  6.368E-01  1.000E+01  2.500E-02  1.212E+00
   1    5    9     4     2    9.9091E+00  1.8158E-01   9.7275E+00  0.000E+00  0.000E+00  0.000E+00  1.07154E+03  6.315E-01  1.000E+01  5.000E-02  1.211E+00
   1    6    8     4     3    9.7275E+00  1.2689E-01   9.6006E+00  0.000E+00  0.000E+00  0.000E+00  1.06381E+03  6.256E-01  1.000E+01  3.500E-02  1.209E+00
   1    6    8     5     1    1.0432E+01  2.2686E-01   1.0205E+01  0.000E+00  0.000E+00  0.000E+00  1.05868E+03  6.790E-01  1.542E+01  6.166E-02  1.226E+00
   1    7    7     5     2    1.0205E+01  2.7894E-01   9.9265E+00  0.000E+00  0.000E+00  0.000E+00  1.05417E+03  6.732E-01  1.519E+01  7.594E-02  1.224E+00
   1    8    7     5     3    9.9265E+00  1.9221E-01   9.7343E+00  0.000E+00  0.000E+00  0.000E+00  1.04992E+03  6.676E-01  1.497E+01  5.241E-02  1.223E+00
   1    8    6     5     4    9.7343E+00  1.3577E-01   9.5985E+00  0.000E+00  0.000E+00  0.000E+00  1.04691E+03  6.637E-01  1.482E+01  3.706E-02  1.221E+00
   1    9    6     6     1    8.6641E+01  3.3426E-01   8.6306E+01  0.000E+00  0.000E+00  0.000E+00  1.04530E+03  2.571E+00  1.200E+01  6.000E-02  1.857E+00
   1   10    7     6     2    8.6306E+01  3.3390E-01   8.5973E+01  0.000E+00  0.000E+00  0.000E+00  1.04075E+03  2.565E+00  1.200E+01  6.000E-02  1.855E+00
   1   11    7     6     3    8.5973E+01  3.3354E-01   8.5639E+01  0.000E+00  0.000E+00  0.000E+00  1.03620E+03  2.559E+00  1.200E+01  6.000E-02  1.853E+00
   1   12    7     6     4    8.5639E+01  3.3319E-01   8.5306E+01  0.000E+00  0.000E+00  0.000E+00  1.03164E+03  2.553E+00  1.200E+01  6.000E-02  1.851E+00
   1   13    7     6     5    8.5306E+01  2.9844E-02   8.5276E+01  0.000E+00  0.000E+00  0.000E+00  1.02846E+03  2.550E+00  1.200E+01  2.400E-02  4.145E-01
   1   14    9     7     1    1.5000E+02  1.3319E+00   1.4867E+02  0.000E+00  0.000E+00  0.000E+00  1.03987E+03  2.288E+00  5.529E+01  5.593E-01  7.938E-01
   1   13    8     7     2    1.4867E+02  1.8062E+00   1.4686E+02  0.000E+00  0.000E+00  0.000E+00  1.03478E+03  2.279E+00  5.526E+01  6.148E-01  9.793E-01
   1   13    7     7     3    1.4686E+02  1.3821E+00   1.4548E+02  0.000E+00  0.000E+00  0.000E+00  1.02969E+03  2.271E+00  5.522E+01  5.585E-01  8.249E-01
   1   13    6     8     1    2.3076E+02  1.0601E+00   2.2970E+02  0.000E+00  0.000E+00  0.000E+00  1.02518E+03  3.308E+00  4.796E+01  4.888E-01  7.230E-01
   1   13    5     8     2    2.2970E+02  2.2370E-01   2.2947E+02  0.000E+00  0.000E+00  0.000E+00  1.01893E+03  3.304E+00  4.791E+01  4.882E-01  1.527E-01
   1   13    4     8     3    2.2947E+02 -2.0979E+00   2.3157E+02  0.000E+00  0.000E+00  0.000E+00  1.01268E+03  3.309E+00  4.799E+01  4.890E+00 -1.430E-01
   1   13    3     8     4    2.3157E+02 -3.2813E+00   2.3485E+02  0.000E+00  0.000E+00  0.000E+00  1.00645E+03  3.324E+00  4.819E+01  4.911E+00 -2.227E-01
   1   13    2     8     5    2.3485E+02 -2.6428E+00   2.3749E+02  0.000E+00  0.000E+00  0.000E+00  1.00021E+03  3.340E+00  4.842E+01  4.935E+00 -1.785E-01
   1   13    1     8     6    2.3749E+02 -1.9963E+00   2.3949E+02  0.000E+00  0.000E+00  0.000E+00  9.95227E+02  3.352E+00  4.860E+01  2.972E+00 -2.239E-01



 UBDSV3 SAVING "           GW ET" ON UNIT  61 AT TIME STEP  5, STRESS PERIOD   7
 UBDSV3 SAVING "    UZF RECHARGE" ON UNIT  61 AT TIME STEP  5, STRESS PERIOD   7
 UBDSV3 SAVING " SURFACE LEAKAGE" ON UNIT  61 AT TIME STEP  5, STRESS PERIOD   7
 UBDSV3 SAVING "       HORT+DUNN" ON UNIT  61 AT TIME STEP  5, STRESS PERIOD   7
 UBDSV3 SAVING "  STORAGE CHANGE" ON UNIT  61 AT TIME STEP  5, STRESS PERIOD   7


UNSATURATED ZONE PACKAGE VOLUMETRIC BUDGET FOR  TIME STEP     5 STRESS PERIOD    7
  ------------------------------------------------------------------------------



     CUMULATIVE VOLUMES      L**3       RATES FOR THIS TIME STEP      L**3/T
     ------------------                 ------------------------

           IN:                                      IN:
           ---                                      ---
        INFILTRATION =    50868764.4129          INFILTRATION =          23.3175

          OUT:                                     OUT:
          ----                                     ----
              UZF ET =    50794575.4760                UZF ET =          23.3175
        UZF RECHARGE =       73224.0000          UZF RECHARGE =       0.0000E+00

            IN - OUT =         964.9370              IN - OUT =       4.2915E-06

          STORAGE:                                 STORAGE:
          --------                                 --------
      STORAGE CHANGE =         964.9921        STORAGE CHANGE =       4.2664E-06

 PERCENT DISCREPANCY IS DIFFERENCE BETWEEN IN-OUT MINUS CHANGE IN STORAGE
 DIVIDED BY THE AVERAGE OF IN AND OUT TIMES 100

 PERCENT DISCREPANCY =           0.00     PERCENT DISCREPANCY =           0.00






 

            AG WELLS      PERIOD    7   STEP   5
 AG WELL      1   LAYER   1   ROW     6   COL     4   RATE    -3.74500    
 AG WELL      2   LAYER   1   ROW     6   COL     5   RATE    -3.74500    
 AG WELL      3   LAYER   1   ROW     7   COL     4   RATE    -3.74500    
 AG WELL      4   LAYER   1   ROW     7   COL     5   RATE    -3.74500    
 AG WELL      5   LAYER   1   ROW     8   COL     4   RATE    -3.74500    
 AG WELL      6   LAYER   1   ROW     8   COL     5   RATE    -3.74500    
 
 

        GW IRRIGATION     PERIOD    7   STEP   5
 AG WELL      1   ROW     6   COL     4   RATE     3.74500    
 AG WELL      2   ROW     6   COL     5   RATE     3.74500    
 AG WELL      3   ROW     7   COL     4   RATE     3.74500    
 AG WELL      4   ROW     7   COL     5   RATE     3.74500    
 AG WELL      5   ROW     8   COL     4   RATE     3.74500    
 AG WELL      6   ROW     8   COL     5   RATE     3.74500    
 
1
  VOLUMETRIC BUDGET FOR AGRICULTURAL FIELDS AT  END OF TIME STEP    5, STRESS PERIOD   7
  ------------------------------------------------------------------------------

     CUMULATIVE VOLUMES      L**3       RATES FOR THIS TIME STEP      L**3/T
     ------------------                 ------------------------

           IN:                                      IN:
           ---                                      ---
               AG WELLS  =    39279432.0000                 AG WELLS  =          22.4700
      DIVERSION SEGMENTS =           0.0000        DIVERSION SEGMENTS =           0.0000
           GW IRRIGATION =           0.0000             GW IRRIGATION =           0.0000
           SW IRRIGATION =           0.0000             SW IRRIGATION =           0.0000
        SYSTEM LOSSES GW =           0.0000          SYSTEM LOSSES GW =           0.0000
        SYSTEM LOSSES SW =           0.0000          SYSTEM LOSSES SW =           0.0000

                TOTAL IN =    39279432.0000                  TOTAL IN =          22.4700

          OUT:                                     OUT:
          ----                                     ----
               AG WELLS  =           0.0000                 AG WELLS  =           0.0000
      DIVERSION SEGMENTS =           0.0000        DIVERSION SEGMENTS =           0.0000
           GW IRRIGATION =    39279432.0000             GW IRRIGATION =          22.4700
           SW IRRIGATION =           0.0000             SW IRRIGATION =           0.0000
        SYSTEM LOSSES GW =           0.0000          SYSTEM LOSSES GW =           0.0000
        SYSTEM LOSSES SW =           0.0000          SYSTEM LOSSES SW =           0.0000

               TOTAL OUT =    39279432.0000                 TOTAL OUT =          22.4700

                IN - OUT =           0.0000                  IN - OUT =           0.0000

     PERCENT DISCREPANCY =           0.00         PERCENT DISCREPANCY =           0.00



1
  VOLUMETRIC BUDGET FOR ENTIRE MODEL AT END OF TIME STEP    5, STRESS PERIOD   7
  ------------------------------------------------------------------------------

     CUMULATIVE VOLUMES      L**3       RATES FOR THIS TIME STEP      L**3/T
     ------------------                 ------------------------

           IN:                                      IN:
           ---                                      ---
             STORAGE     =    46421364.0000               STORAGE     =          22.7604
       CONSTANT HEAD     =           0.0000         CONSTANT HEAD     =           0.0000
     HEAD DEP BOUNDS     =     3903409.5000       HEAD DEP BOUNDS     =           0.2855
      STREAM LEAKAGE     =   172600848.0000        STREAM LEAKAGE     =          13.5284
        UZF RECHARGE     =       73223.9531          UZF RECHARGE     =           0.0000
               GW ET     =           0.0000                 GW ET     =           0.0000
     SURFACE LEAKAGE     =           0.0000       SURFACE LEAKAGE     =           0.0000
           AG WELLS      =           0.0000             AG WELLS      =           0.0000

                TOTAL IN =   222998832.0000                  TOTAL IN =          36.5743

          OUT:                                     OUT:
          ----                                     ----
             STORAGE     =    37712492.0000               STORAGE     =           2.0610
       CONSTANT HEAD     =           0.0000         CONSTANT HEAD     =           0.0000
     HEAD DEP BOUNDS     =     4016779.5000       HEAD DEP BOUNDS     =           0.3001
      STREAM LEAKAGE     =   139079184.0000        STREAM LEAKAGE     =          10.0183
        UZF RECHARGE     =           0.0000          UZF RECHARGE     =           0.0000
               GW ET     =     2913454.2500                 GW ET     =           1.7249
     SURFACE LEAKAGE     =           0.0000       SURFACE LEAKAGE     =           0.0000
           AG WELLS      =    39279432.0000             AG WELLS      =          22.4700

               TOTAL OUT =   223001344.0000                 TOTAL OUT =          36.5744

                IN - OUT =       -2512.0000                  IN - OUT =      -6.8665E-05

     PERCENT DISCREPANCY =          -0.00         PERCENT DISCREPANCY =          -0.00






         TIME SUMMARY AT END OF TIME STEP    5 IN STRESS PERIOD    7
                    SECONDS     MINUTES      HOURS       DAYS        YEARS
                    -----------------------------------------------------------
   TIME STEP LENGTH  87667.      1461.1      24.352      1.0147     2.77799E-03
 STRESS PERIOD TIME 4.38333E+05  7305.6      121.76      5.0733     1.38899E-02
         TOTAL TIME 1.36747E+07 2.27912E+05  3798.5      158.27     0.43333    
1
 
 SOLVING FOR HEAD 
                                                   Max.-Head-Change                         Max.-Flux-Residual
  Residual-Control   Outer-Iter.   Inner-Iter.     Column Row Layer    Maximum-Head-Change  Column Row Layer    Maximum-Flux-Residual          L2-NORM 
          0                 1           2             4    7     1      -0.6117326816E-01       4    7    1        -0.3203396146E+01      0.7268495281E+01
          0                 2           2             4    7     1       0.5950437681E-02       4    7    1         0.3203361881E+00      0.7267476208E+00
          0                 3           2             4    7     1      -0.4052075443E-03       4    7    1        -0.2242381144E-01      0.5086443913E-01
          0                 4           1             4    7     1       0.1611938189E-04       4    7    1         0.9168966228E-03      0.2079209517E-02

    ------------------------------------------------
       NWT REQUIRED            4 OUTER ITERATIONS 
       AND A TOTAL OF          7 INNER ITERATIONS.
    ------------------------------------------------

 NO OUTPUT CONTROL FOR STRESS PERIOD    7   TIME STEP    6
 
 SOLVING FOR HEAD 
                                                   Max.-Head-Change                         Max.-Flux-Residual
  Residual-Control   Outer-Iter.   Inner-Iter.     Column Row Layer    Maximum-Head-Change  Column Row Layer    Maximum-Flux-Residual          L2-NORM 
          0                 1           2             4    7     1      -0.6068362443E-01       4    7    1        -0.3178525810E+01      0.7164366579E+01
          0                 2           2             4    7     1       0.5902807587E-02       4    7    1         0.3178490747E+00      0.7163632310E+00
          0                 3           2             4    7     1      -0.4019641224E-03       4    7    1        -0.2224971419E-01      0.5014011495E-01
          0                 4           1             4    7     1       0.1599032293E-04       4    7    1         0.9097760187E-03      0.2049780773E-02

    ------------------------------------------------
       NWT REQUIRED            4 OUTER ITERATIONS 
       AND A TOTAL OF          7 INNER ITERATIONS.
    ------------------------------------------------

 NO OUTPUT CONTROL FOR STRESS PERIOD    7   TIME STEP    7
 
 SOLVING FOR HEAD 
                                                   Max.-Head-Change                         Max.-Flux-Residual
  Residual-Control   Outer-Iter.   Inner-Iter.     Column Row Layer    Maximum-Head-Change  Column Row Layer    Maximum-Flux-Residual          L2-NORM 
          0                 1           2             4    7     1      -0.6018453754E-01       4    7    1        -0.3153092932E+01      0.7066528332E+01
          0                 2           2             4    7     1       0.5854259128E-02       4    7    1         0.3153057206E+00      0.7065992519E+00
          0                 3           2             4    7     1      -0.3986581611E-03       4    7    1        -0.2207167994E-01      0.4945636714E-01
          0                 4           1             4    7     1       0.1585877514E-04       4    7    1         0.9024944006E-03      0.2020967906E-02

    ------------------------------------------------
       NWT REQUIRED            4 OUTER ITERATIONS 
       AND A TOTAL OF          7 INNER ITERATIONS.
    ------------------------------------------------

 NO OUTPUT CONTROL FOR STRESS PERIOD    7   TIME STEP    8
 
 SOLVING FOR HEAD 
                                                   Max.-Head-Change                         Max.-Flux-Residual
  Residual-Control   Outer-Iter.   Inner-Iter.     Column Row Layer    Maximum-Head-Change  Column Row Layer    Maximum-Flux-Residual          L2-NORM 
          0                 1           2             4    7     1      -0.5967705301E-01       4    7    1        -0.3127155650E+01      0.6973896907E+01
          0                 2           2             4    7     1       0.5804893988E-02       4    7    1         0.3127119384E+00      0.6973499024E+00
          0                 3           2             4    7     1      -0.3952965848E-03       4    7    1        -0.2189011561E-01      0.4881214123E-01
          0                 4           1             4    7     1       0.1572501483E-04       4    7    1         0.8950683994E-03      0.1995636583E-02

    ------------------------------------------------
       NWT REQUIRED            4 OUTER ITERATIONS 
       AND A TOTAL OF          7 INNER ITERATIONS.
    ------------------------------------------------

 NO OUTPUT CONTROL FOR STRESS PERIOD    7   TIME STEP    9
 
 SOLVING FOR HEAD 
                                                   Max.-Head-Change                         Max.-Flux-Residual
  Residual-Control   Outer-Iter.   Inner-Iter.     Column Row Layer    Maximum-Head-Change  Column Row Layer    Maximum-Flux-Residual          L2-NORM 
          0                 1           2             4    7     1      -0.5916268754E-01       4    7    1        -0.3100797758E+01      0.6885732053E+01
          0                 2           2             4    7     1       0.5754859684E-02       4    7    1         0.3100761066E+00      0.6885432059E+00
          0                 3           2             4    7     1      -0.3918894402E-03       4    7    1        -0.2170560771E-01      0.4819660035E-01
          0                 4           1             4    7     1       0.1558944172E-04       4    7    1         0.8875220296E-03      0.1970524616E-02

    ------------------------------------------------
       NWT REQUIRED            4 OUTER ITERATIONS 
       AND A TOTAL OF          7 INNER ITERATIONS.
    ------------------------------------------------

 OUTPUT CONTROL FOR STRESS PERIOD    7   TIME STEP   10
    PRINT BUDGET
    SAVE BUDGET
 UBDSV1 SAVING "         STORAGE" ON UNIT 102 AT TIME STEP 10, STRESS PERIOD   7
 UBDSV2 SAVING "   CONSTANT HEAD" ON UNIT 102 AT TIME STEP 10, STRESS PERIOD   7
 UBDSV1 SAVING "FLOW RIGHT FACE " ON UNIT 102 AT TIME STEP 10, STRESS PERIOD   7
 UBDSV1 SAVING "FLOW FRONT FACE " ON UNIT 102 AT TIME STEP 10, STRESS PERIOD   7

  HEAD DEP BOUNDS   PERIOD    7   STEP    10
 BOUNDARY      1   LAYER   1   ROW    13   COL     1   RATE   -0.300044    
 BOUNDARY      2   LAYER   1   ROW    14   COL     9   RATE    0.285490    



 STREAM LISTING     PERIOD      7   STEP       10

 LAYER ROW COL. STREAM  RCH.  FLOW INTO     FLOW TO   FLOW OUT OF   OVRLND.     DIRECT     STREAM       STREAM     STREAM     STREAM   STREAMBED  STREAMBED
                SEG.NO.  NO.  STRM. RCH.    AQUIFER    STRM. RCH.    RUNOFF     PRECIP       ET          HEAD       DEPTH      WIDTH   CONDCTNC.   GRADIENT

   1    1    1     1     1    8.3000E+01  4.4019E-01   8.2560E+01  0.000E+00  0.000E+00  0.000E+00  1.09478E+03  1.734E+00  2.066E+01  9.299E-02  1.578E+00
   1    2    2     1     2    8.2560E+01  6.8286E-01   8.1877E+01  0.000E+00  0.000E+00  0.000E+00  1.08979E+03  1.731E+00  2.062E+01  1.443E-01  1.577E+00
   1    3    3     1     3    8.1877E+01  5.8349E-01   8.1294E+01  0.000E+00  0.000E+00  0.000E+00  1.08415E+03  1.729E+00  2.057E+01  1.234E-01  1.576E+00
   1    3    4     1     4    8.1294E+01  5.3822E-01   8.0756E+01  0.000E+00  0.000E+00  0.000E+00  1.07913E+03  1.726E+00  2.052E+01  1.139E-01  1.575E+00
   1    4    5     2     1    7.8756E+01  4.2120E-01   7.8334E+01  0.000E+00  0.000E+00  0.000E+00  1.07433E+03  2.400E+00  1.200E+01  7.800E-02  1.800E+00
   1    5    6     2     2    7.8334E+01  3.2359E-01   7.8011E+01  0.000E+00  0.000E+00  0.000E+00  1.06890E+03  2.393E+00  1.200E+01  6.000E-02  1.798E+00
   1    6    6     2     3    7.8011E+01  3.2323E-01   7.7688E+01  0.000E+00  0.000E+00  0.000E+00  1.06418E+03  2.387E+00  1.200E+01  6.000E-02  1.796E+00
   1    7    6     2     4    7.7688E+01  3.2288E-01   7.7365E+01  0.000E+00  0.000E+00  0.000E+00  1.05946E+03  2.381E+00  1.200E+01  6.000E-02  1.794E+00
   1    8    6     2     5    7.7365E+01  3.2252E-01   7.7042E+01  0.000E+00  0.000E+00  0.000E+00  1.05473E+03  2.375E+00  1.200E+01  6.000E-02  1.792E+00
   1    3    5     3     1    2.0000E+00  2.8252E-01   1.7175E+00  0.000E+00  0.000E+00  0.000E+00  1.07555E+03  1.909E+00  9.636E+00  7.227E-02  1.955E+00
   1    3    6     3     2    1.7175E+00  2.4905E-01   1.4684E+00  0.000E+00  0.000E+00  0.000E+00  1.07264E+03  1.727E+00  8.909E+00  6.682E-02  1.864E+00
   1    3    7     3     3    1.4684E+00  1.9718E-01   1.2712E+00  0.000E+00  0.000E+00  0.000E+00  1.06987E+03  1.555E+00  8.218E+00  5.547E-02  1.777E+00
   1    4    8     3     4    1.2712E+00  2.2567E-01   1.0456E+00  0.000E+00  0.000E+00  0.000E+00  1.06682E+03  1.364E+00  7.455E+00  6.709E-02  1.682E+00
   1    5    8     3     5    1.0456E+00  1.5790E-01   8.8768E-01  0.000E+00  0.000E+00  0.000E+00  1.06362E+03  1.164E+00  6.655E+00  4.991E-02  1.582E+00
   1    6    8     3     6    8.8768E-01  5.5980E-02   8.3170E-01  0.000E+00  0.000E+00  0.000E+00  1.06158E+03  1.036E+00  6.145E+00  1.844E-02  1.518E+00
   1    5   10     4     1    1.0000E+01  9.0919E-02   9.9091E+00  0.000E+00  0.000E+00  0.000E+00  1.07836E+03  6.368E-01  1.000E+01  2.500E-02  1.212E+00
   1    5    9     4     2    9.9091E+00  1.8158E-01   9.7275E+00  0.000E+00  0.000E+00  0.000E+00  1.07154E+03  6.315E-01  1.000E+01  5.000E-02  1.211E+00
   1    6    8     4     3    9.7275E+00  1.2689E-01   9.6006E+00  0.000E+00  0.000E+00  0.000E+00  1.06381E+03  6.256E-01  1.000E+01  3.500E-02  1.209E+00
   1    6    8     5     1    1.0432E+01  2.2686E-01   1.0205E+01  0.000E+00  0.000E+00  0.000E+00  1.05868E+03  6.790E-01  1.542E+01  6.166E-02  1.226E+00
   1    7    7     5     2    1.0205E+01  2.7894E-01   9.9265E+00  0.000E+00  0.000E+00  0.000E+00  1.05417E+03  6.732E-01  1.519E+01  7.594E-02  1.224E+00
   1    8    7     5     3    9.9265E+00  1.9221E-01   9.7343E+00  0.000E+00  0.000E+00  0.000E+00  1.04992E+03  6.676E-01  1.497E+01  5.241E-02  1.223E+00
   1    8    6     5     4    9.7343E+00  1.3577E-01   9.5985E+00  0.000E+00  0.000E+00  0.000E+00  1.04691E+03  6.637E-01  1.482E+01  3.706E-02  1.221E+00
   1    9    6     6     1    8.6641E+01  3.3426E-01   8.6306E+01  0.000E+00  0.000E+00  0.000E+00  1.04530E+03  2.571E+00  1.200E+01  6.000E-02  1.857E+00
   1   10    7     6     2    8.6306E+01  3.3390E-01   8.5973E+01  0.000E+00  0.000E+00  0.000E+00  1.04075E+03  2.565E+00  1.200E+01  6.000E-02  1.855E+00
   1   11    7     6     3    8.5973E+01  3.3354E-01   8.5639E+01  0.000E+00  0.000E+00  0.000E+00  1.03620E+03  2.559E+00  1.200E+01  6.000E-02  1.853E+00
   1   12    7     6     4    8.5639E+01  3.3319E-01   8.5306E+01  0.000E+00  0.000E+00  0.000E+00  1.03164E+03  2.553E+00  1.200E+01  6.000E-02  1.851E+00
   1   13    7     6     5    8.5306E+01  2.9753E-02   8.5276E+01  0.000E+00  0.000E+00  0.000E+00  1.02846E+03  2.550E+00  1.200E+01  2.400E-02  4.132E-01
   1   14    9     7     1    1.5000E+02  1.3319E+00   1.4867E+02  0.000E+00  0.000E+00  0.000E+00  1.03987E+03  2.288E+00  5.529E+01  5.593E-01  7.938E-01
   1   13    8     7     2    1.4867E+02  1.8054E+00   1.4686E+02  0.000E+00  0.000E+00  0.000E+00  1.03478E+03  2.279E+00  5.526E+01  6.148E-01  9.789E-01
   1   13    7     7     3    1.4686E+02  1.3800E+00   1.4548E+02  0.000E+00  0.000E+00  0.000E+00  1.02969E+03  2.271E+00  5.522E+01  5.585E-01  8.237E-01
   1   13    6     8     1    2.3076E+02  1.0581E+00   2.2970E+02  0.000E+00  0.000E+00  0.000E+00  1.02518E+03  3.308E+00  4.796E+01  4.888E-01  7.216E-01
   1   13    5     8     2    2.2970E+02  2.2293E-01   2.2948E+02  0.000E+00  0.000E+00  0.000E+00  1.01893E+03  3.304E+00  4.791E+01  4.882E-01  1.522E-01
   1   13    4     8     3    2.2948E+02 -2.0110E+00   2.3149E+02  0.000E+00  0.000E+00  0.000E+00  1.01268E+03  3.309E+00  4.798E+01  4.890E+00 -1.371E-01
   1   13    3     8     4    2.3149E+02 -3.1903E+00   2.3468E+02  0.000E+00  0.000E+00  0.000E+00  1.00645E+03  3.323E+00  4.819E+01  4.910E+00 -2.166E-01
   1   13    2     8     5    2.3468E+02 -2.5909E+00   2.3727E+02  0.000E+00  0.000E+00  0.000E+00  1.00021E+03  3.339E+00  4.841E+01  4.933E+00 -1.751E-01
   1   13    1     8     6    2.3727E+02 -1.9910E+00   2.3926E+02  0.000E+00  0.000E+00  0.000E+00  9.95226E+02  3.351E+00  4.858E+01  2.971E+00 -2.234E-01



 UBDSV3 SAVING "           GW ET" ON UNIT  61 AT TIME STEP 10, STRESS PERIOD   7
 UBDSV3 SAVING "    UZF RECHARGE" ON UNIT  61 AT TIME STEP 10, STRESS PERIOD   7
 UBDSV3 SAVING " SURFACE LEAKAGE" ON UNIT  61 AT TIME STEP 10, STRESS PERIOD   7
 UBDSV3 SAVING "       HORT+DUNN" ON UNIT  61 AT TIME STEP 10, STRESS PERIOD   7
 UBDSV3 SAVING "  STORAGE CHANGE" ON UNIT  61 AT TIME STEP 10, STRESS PERIOD   7


UNSATURATED ZONE PACKAGE VOLUMETRIC BUDGET FOR  TIME STEP    10 STRESS PERIOD    7
  ------------------------------------------------------------------------------



     CUMULATIVE VOLUMES      L**3       RATES FOR THIS TIME STEP      L**3/T
     ------------------                 ------------------------

           IN:                                      IN:
           ---                                      ---
        INFILTRATION =    61089603.7673          INFILTRATION =          23.3175

          OUT:                                     OUT:
          ----                                     ----
              UZF ET =    61015412.9554                UZF ET =          23.3175
        UZF RECHARGE =       73224.0000          UZF RECHARGE =       0.0000E+00

            IN - OUT =         966.8120              IN - OUT =       4.2915E-06

          STORAGE:                                 STORAGE:
          --------                                 --------
      STORAGE CHANGE =         966.8608        STORAGE CHANGE =       4.2634E-06

 PERCENT DISCREPANCY IS DIFFERENCE BETWEEN IN-OUT MINUS CHANGE IN STORAGE
 DIVIDED BY THE AVERAGE OF IN AND OUT TIMES 100

 PERCENT DISCREPANCY =           0.00     PERCENT DISCREPANCY =           0.00






 

            AG WELLS      PERIOD    7   STEP  10
 AG WELL      1   LAYER   1   ROW     6   COL     4   RATE    -3.74500    
 AG WELL      2   LAYER   1   ROW     6   COL     5   RATE    -3.74500    
 AG WELL      3   LAYER   1   ROW     7   COL     4   RATE    -3.74500    
 AG WELL      4   LAYER   1   ROW     7   COL     5   RATE    -3.74500    
 AG WELL      5   LAYER   1   ROW     8   COL     4   RATE    -3.74500    
 AG WELL      6   LAYER   1   ROW     8   COL     5   RATE    -3.74500    
 
 

        GW IRRIGATION     PERIOD    7   STEP  10
 AG WELL      1   ROW     6   COL     4   RATE     3.74500    
 AG WELL      2   ROW     6   COL     5   RATE     3.74500    
 AG WELL      3   ROW     7   COL     4   RATE     3.74500    
 AG WELL      4   ROW     7   COL     5   RATE     3.74500    
 AG WELL      5   ROW     8   COL     4   RATE     3.74500    
 AG WELL      6   ROW     8   COL     5   RATE     3.74500    
 
1
  VOLUMETRIC BUDGET FOR AGRICULTURAL FIELDS AT  END OF TIME STEP   10, STRESS PERIOD   7
  ------------------------------------------------------------------------------

     CUMULATIVE VOLUMES      L**3       RATES FOR THIS TIME STEP      L**3/T
     ------------------                 ------------------------

           IN:                                      IN:
           ---                                      ---
               AG WELLS  =    49128792.0000                 AG WELLS  =          22.4700
      DIVERSION SEGMENTS =           0.0000        DIVERSION SEGMENTS =           0.0000
           GW IRRIGATION =           0.0000             GW IRRIGATION =           0.0000
           SW IRRIGATION =           0.0000             SW IRRIGATION =           0.0000
        SYSTEM LOSSES GW =           0.0000          SYSTEM LOSSES GW =           0.0000
        SYSTEM LOSSES SW =           0.0000          SYSTEM LOSSES SW =           0.0000

                TOTAL IN =    49128792.0000                  TOTAL IN =          22.4700

          OUT:                                     OUT:
          ----                                     ----
               AG WELLS  =           0.0000                 AG WELLS  =           0.0000
      DIVERSION SEGMENTS =           0.0000        DIVERSION SEGMENTS =           0.0000
           GW IRRIGATION =    49128792.0000             GW IRRIGATION =          22.4700
           SW IRRIGATION =           0.0000             SW IRRIGATION =           0.0000
        SYSTEM LOSSES GW =           0.0000          SYSTEM LOSSES GW =           0.0000
        SYSTEM LOSSES SW =           0.0000          SYSTEM LOSSES SW =           0.0000

               TOTAL OUT =    49128792.0000                 TOTAL OUT =          22.4700

                IN - OUT =           0.0000                  IN - OUT =           0.0000

     PERCENT DISCREPANCY =           0.00         PERCENT DISCREPANCY =           0.00



1
  VOLUMETRIC BUDGET FOR ENTIRE MODEL AT END OF TIME STEP   10, STRESS PERIOD   7
  ------------------------------------------------------------------------------

     CUMULATIVE VOLUMES      L**3       RATES FOR THIS TIME STEP      L**3/T
     ------------------                 ------------------------

           IN:                                      IN:
           ---                                      ---
             STORAGE     =    56216140.0000               STORAGE     =          22.1461
       CONSTANT HEAD     =           0.0000         CONSTANT HEAD     =           0.0000
     HEAD DEP BOUNDS     =     4028549.5000       HEAD DEP BOUNDS     =           0.2855
      STREAM LEAKAGE     =   178529248.0000        STREAM LEAKAGE     =          13.5226
        UZF RECHARGE     =       73223.9531          UZF RECHARGE     =           0.0000
               GW ET     =           0.0000                 GW ET     =           0.0000
     SURFACE LEAKAGE     =           0.0000       SURFACE LEAKAGE     =           0.0000
           AG WELLS      =           0.0000             AG WELLS      =           0.0000

                TOTAL IN =   238847152.0000                  TOTAL IN =          35.9542

          OUT:                                     OUT:
          ----                                     ----
             STORAGE     =    38584560.0000               STORAGE     =           1.9533
       CONSTANT HEAD     =           0.0000         CONSTANT HEAD     =           0.0000
     HEAD DEP BOUNDS     =     4148316.2500       HEAD DEP BOUNDS     =           0.3000
      STREAM LEAKAGE     =   143401584.0000        STREAM LEAKAGE     =           9.7833
        UZF RECHARGE     =           0.0000          UZF RECHARGE     =           0.0000
               GW ET     =     3586412.7500                 GW ET     =           1.4476
     SURFACE LEAKAGE     =           0.0000       SURFACE LEAKAGE     =           0.0000
           AG WELLS      =    49128792.0000             AG WELLS      =          22.4700

               TOTAL OUT =   238849664.0000                 TOTAL OUT =          35.9543

                IN - OUT =       -2512.0000                  IN - OUT =      -6.8665E-05

     PERCENT DISCREPANCY =          -0.00         PERCENT DISCREPANCY =          -0.00






         TIME SUMMARY AT END OF TIME STEP   10 IN STRESS PERIOD    7
                    SECONDS     MINUTES      HOURS       DAYS        YEARS
                    -----------------------------------------------------------
   TIME STEP LENGTH  87667.      1461.1      24.352      1.0147     2.77799E-03
 STRESS PERIOD TIME 8.76667E+05  14611.      243.52      10.147     2.77799E-02
         TOTAL TIME 1.41131E+07 2.35218E+05  3920.3      163.35     0.44722    
1
 
 SOLVING FOR HEAD 
                                                   Max.-Head-Change                         Max.-Flux-Residual
  Residual-Control   Outer-Iter.   Inner-Iter.     Column Row Layer    Maximum-Head-Change  Column Row Layer    Maximum-Flux-Residual          L2-NORM 
          0                 1           2             4    7     1      -0.5864202962E-01       4    7    1        -0.3074053527E+01      0.6801446505E+01
          0                 2           2             4    7     1       0.5704213448E-02       4    7    1         0.3074016514E+00      0.6801215037E+00
          0                 3           2             4    7     1      -0.3884406230E-03       4    7    1        -0.2151839606E-01      0.4760763829E-01
          0                 4           1             4    7     1       0.1545220985E-04       4    7    1         0.8798650522E-03      0.1946470205E-02

    ------------------------------------------------
       NWT REQUIRED            4 OUTER ITERATIONS 
       AND A TOTAL OF          7 INNER ITERATIONS.
    ------------------------------------------------

 NO OUTPUT CONTROL FOR STRESS PERIOD    7   TIME STEP   11
 
 SOLVING FOR HEAD 
                                                   Max.-Head-Change                         Max.-Flux-Residual
  Residual-Control   Outer-Iter.   Inner-Iter.     Column Row Layer    Maximum-Head-Change  Column Row Layer    Maximum-Flux-Residual          L2-NORM 
          0                 1           2             4    7     1      -0.5811671806E-01       4    7    1        -0.3047012628E+01      0.6720624670E+01
          0                 2           2             4    7     1       0.5653114677E-02       4    7    1         0.3046975387E+00      0.6720441862E+00
          0                 3           2             4    7     1      -0.3849609892E-03       4    7    1        -0.2132910831E-01      0.4704265387E-01
          0                 4           1             4    7     1       0.1531375187E-04       4    7    1         0.8721231741E-03      0.1923411177E-02

    ------------------------------------------------
       NWT REQUIRED            4 OUTER ITERATIONS 
       AND A TOTAL OF          7 INNER ITERATIONS.
    ------------------------------------------------

 NO OUTPUT CONTROL FOR STRESS PERIOD    7   TIME STEP   12
 
 SOLVING FOR HEAD 
                                                   Max.-Head-Change                         Max.-Flux-Residual
  Residual-Control   Outer-Iter.   Inner-Iter.     Column Row Layer    Maximum-Head-Change  Column Row Layer    Maximum-Flux-Residual          L2-NORM 
          0                 1           2             4    7     1      -0.5758746129E-01       4    7    1        -0.3019715667E+01      0.6642916812E+01
          0                 2           2             4    7     1       0.5601632268E-02       4    7    1         0.3019678283E+00      0.6642768923E+00
          0                 3           2             4    7     1      -0.3814552292E-03       4    7    1        -0.2113802863E-01      0.4649922065E-01
          0                 4           1             4    7     1       0.1517425452E-04       4    7    1         0.8643079996E-03      0.1901175043E-02

    ------------------------------------------------
       NWT REQUIRED            4 OUTER ITERATIONS 
       AND A TOTAL OF          7 INNER ITERATIONS.
    ------------------------------------------------

 NO OUTPUT CONTROL FOR STRESS PERIOD    7   TIME STEP   13
 
 SOLVING FOR HEAD 
                                                   Max.-Head-Change                         Max.-Flux-Residual
  Residual-Control   Outer-Iter.   Inner-Iter.     Column Row Layer    Maximum-Head-Change  Column Row Layer    Maximum-Flux-Residual          L2-NORM 
          0                 1           2             4    7     1      -0.5705519409E-01       4    7    1        -0.2992214164E+01      0.6568076724E+01
          0                 2           2             4    7     1       0.5549857139E-02       4    7    1         0.2992176718E+00      0.6567954581E+00
          0                 3           2             4    7     1      -0.3779295356E-03       4    7    1        -0.2094551765E-01      0.4597576394E-01
          0                 4           1             4    7     1       0.1503396417E-04       4    7    1         0.8564343082E-03      0.1879825472E-02

    ------------------------------------------------
       NWT REQUIRED            4 OUTER ITERATIONS 
       AND A TOTAL OF          7 INNER ITERATIONS.
    ------------------------------------------------

 NO OUTPUT CONTROL FOR STRESS PERIOD    7   TIME STEP   14
 
 SOLVING FOR HEAD 
                                                   Max.-Head-Change                         Max.-Flux-Residual
  Residual-Control   Outer-Iter.   Inner-Iter.     Column Row Layer    Maximum-Head-Change  Column Row Layer    Maximum-Flux-Residual          L2-NORM 
          0                 1           2             4    7     1      -0.5652077070E-01       4    7    1        -0.2964556588E+01      0.6495869616E+01
          0                 2           2             4    7     1       0.5497872375E-02       4    7    1         0.2964519149E+00      0.6495765750E+00
          0                 3           2             4    7     1      -0.3743895654E-03       4    7    1        -0.2075191460E-01      0.4547057297E-01
          0                 4           1             4    7     1       0.1489310532E-04       4    7    1         0.8485159167E-03      0.1859166102E-02

    ------------------------------------------------
       NWT REQUIRED            4 OUTER ITERATIONS 
       AND A TOTAL OF          7 INNER ITERATIONS.
    ------------------------------------------------

 OUTPUT CONTROL FOR STRESS PERIOD    7   TIME STEP   15
    PRINT BUDGET
    SAVE BUDGET
 UBDSV1 SAVING "         STORAGE" ON UNIT 102 AT TIME STEP 15, STRESS PERIOD   7
 UBDSV2 SAVING "   CONSTANT HEAD" ON UNIT 102 AT TIME STEP 15, STRESS PERIOD   7
 UBDSV1 SAVING "FLOW RIGHT FACE " ON UNIT 102 AT TIME STEP 15, STRESS PERIOD   7
 UBDSV1 SAVING "FLOW FRONT FACE " ON UNIT 102 AT TIME STEP 15, STRESS PERIOD   7

  HEAD DEP BOUNDS   PERIOD    7   STEP    15
 BOUNDARY      1   LAYER   1   ROW    13   COL     1   RATE   -0.299953    
 BOUNDARY      2   LAYER   1   ROW    14   COL     9   RATE    0.285489    



 STREAM LISTING     PERIOD      7   STEP       15

 LAYER ROW COL. STREAM  RCH.  FLOW INTO     FLOW TO   FLOW OUT OF   OVRLND.     DIRECT     STREAM       STREAM     STREAM     STREAM   STREAMBED  STREAMBED
                SEG.NO.  NO.  STRM. RCH.    AQUIFER    STRM. RCH.    RUNOFF     PRECIP       ET          HEAD       DEPTH      WIDTH   CONDCTNC.   GRADIENT

   1    1    1     1     1    8.3000E+01  4.4019E-01   8.2560E+01  0.000E+00  0.000E+00  0.000E+00  1.09478E+03  1.734E+00  2.066E+01  9.299E-02  1.578E+00
   1    2    2     1     2    8.2560E+01  6.8286E-01   8.1877E+01  0.000E+00  0.000E+00  0.000E+00  1.08979E+03  1.731E+00  2.062E+01  1.443E-01  1.577E+00
   1    3    3     1     3    8.1877E+01  5.8349E-01   8.1294E+01  0.000E+00  0.000E+00  0.000E+00  1.08415E+03  1.729E+00  2.057E+01  1.234E-01  1.576E+00
   1    3    4     1     4    8.1294E+01  5.3822E-01   8.0756E+01  0.000E+00  0.000E+00  0.000E+00  1.07913E+03  1.726E+00  2.052E+01  1.139E-01  1.575E+00
   1    4    5     2     1    7.8756E+01  4.2120E-01   7.8334E+01  0.000E+00  0.000E+00  0.000E+00  1.07433E+03  2.400E+00  1.200E+01  7.800E-02  1.800E+00
   1    5    6     2     2    7.8334E+01  3.2359E-01   7.8011E+01  0.000E+00  0.000E+00  0.000E+00  1.06890E+03  2.393E+00  1.200E+01  6.000E-02  1.798E+00
   1    6    6     2     3    7.8011E+01  3.2323E-01   7.7688E+01  0.000E+00  0.000E+00  0.000E+00  1.06418E+03  2.387E+00  1.200E+01  6.000E-02  1.796E+00
   1    7    6     2     4    7.7688E+01  3.2288E-01   7.7365E+01  0.000E+00  0.000E+00  0.000E+00  1.05946E+03  2.381E+00  1.200E+01  6.000E-02  1.794E+00
   1    8    6     2     5    7.7365E+01  3.2252E-01   7.7042E+01  0.000E+00  0.000E+00  0.000E+00  1.05473E+03  2.375E+00  1.200E+01  6.000E-02  1.792E+00
   1    3    5     3     1    2.0000E+00  2.8252E-01   1.7175E+00  0.000E+00  0.000E+00  0.000E+00  1.07555E+03  1.909E+00  9.636E+00  7.227E-02  1.955E+00
   1    3    6     3     2    1.7175E+00  2.4905E-01   1.4684E+00  0.000E+00  0.000E+00  0.000E+00  1.07264E+03  1.727E+00  8.909E+00  6.682E-02  1.864E+00
   1    3    7     3     3    1.4684E+00  1.9718E-01   1.2712E+00  0.000E+00  0.000E+00  0.000E+00  1.06987E+03  1.555E+00  8.218E+00  5.547E-02  1.777E+00
   1    4    8     3     4    1.2712E+00  2.2567E-01   1.0456E+00  0.000E+00  0.000E+00  0.000E+00  1.06682E+03  1.364E+00  7.455E+00  6.709E-02  1.682E+00
   1    5    8     3     5    1.0456E+00  1.5790E-01   8.8768E-01  0.000E+00  0.000E+00  0.000E+00  1.06362E+03  1.164E+00  6.655E+00  4.991E-02  1.582E+00
   1    6    8     3     6    8.8768E-01  5.5980E-02   8.3170E-01  0.000E+00  0.000E+00  0.000E+00  1.06158E+03  1.036E+00  6.145E+00  1.844E-02  1.518E+00
   1    5   10     4     1    1.0000E+01  9.0919E-02   9.9091E+00  0.000E+00  0.000E+00  0.000E+00  1.07836E+03  6.368E-01  1.000E+01  2.500E-02  1.212E+00
   1    5    9     4     2    9.9091E+00  1.8158E-01   9.7275E+00  0.000E+00  0.000E+00  0.000E+00  1.07154E+03  6.315E-01  1.000E+01  5.000E-02  1.211E+00
   1    6    8     4     3    9.7275E+00  1.2689E-01   9.6006E+00  0.000E+00  0.000E+00  0.000E+00  1.06381E+03  6.256E-01  1.000E+01  3.500E-02  1.209E+00
   1    6    8     5     1    1.0432E+01  2.2686E-01   1.0205E+01  0.000E+00  0.000E+00  0.000E+00  1.05868E+03  6.790E-01  1.542E+01  6.166E-02  1.226E+00
   1    7    7     5     2    1.0205E+01  2.7894E-01   9.9265E+00  0.000E+00  0.000E+00  0.000E+00  1.05417E+03  6.732E-01  1.519E+01  7.594E-02  1.224E+00
   1    8    7     5     3    9.9265E+00  1.9221E-01   9.7343E+00  0.000E+00  0.000E+00  0.000E+00  1.04992E+03  6.676E-01  1.497E+01  5.241E-02  1.223E+00
   1    8    6     5     4    9.7343E+00  1.3577E-01   9.5985E+00  0.000E+00  0.000E+00  0.000E+00  1.04691E+03  6.637E-01  1.482E+01  3.706E-02  1.221E+00
   1    9    6     6     1    8.6641E+01  3.3426E-01   8.6306E+01  0.000E+00  0.000E+00  0.000E+00  1.04530E+03  2.571E+00  1.200E+01  6.000E-02  1.857E+00
   1   10    7     6     2    8.6306E+01  3.3390E-01   8.5973E+01  0.000E+00  0.000E+00  0.000E+00  1.04075E+03  2.565E+00  1.200E+01  6.000E-02  1.855E+00
   1   11    7     6     3    8.5973E+01  3.3354E-01   8.5639E+01  0.000E+00  0.000E+00  0.000E+00  1.03620E+03  2.559E+00  1.200E+01  6.000E-02  1.853E+00
   1   12    7     6     4    8.5639E+01  3.3319E-01   8.5306E+01  0.000E+00  0.000E+00  0.000E+00  1.03164E+03  2.553E+00  1.200E+01  6.000E-02  1.851E+00
   1   13    7     6     5    8.5306E+01  2.9667E-02   8.5276E+01  0.000E+00  0.000E+00  0.000E+00  1.02846E+03  2.550E+00  1.200E+01  2.400E-02  4.120E-01
   1   14    9     7     1    1.5000E+02  1.3319E+00   1.4867E+02  0.000E+00  0.000E+00  0.000E+00  1.03987E+03  2.288E+00  5.529E+01  5.593E-01  7.938E-01
   1   13    8     7     2    1.4867E+02  1.8047E+00   1.4686E+02  0.000E+00  0.000E+00  0.000E+00  1.03478E+03  2.279E+00  5.526E+01  6.148E-01  9.785E-01
   1   13    7     7     3    1.4686E+02  1.3780E+00   1.4549E+02  0.000E+00  0.000E+00  0.000E+00  1.02969E+03  2.271E+00  5.522E+01  5.585E-01  8.225E-01
   1   13    6     8     1    2.3076E+02  1.0561E+00   2.2971E+02  0.000E+00  0.000E+00  0.000E+00  1.02518E+03  3.308E+00  4.796E+01  4.888E-01  7.203E-01
   1   13    5     8     2    2.2971E+02  2.2234E-01   2.2948E+02  0.000E+00  0.000E+00  0.000E+00  1.01893E+03  3.304E+00  4.791E+01  4.883E-01  1.518E-01
   1   13    4     8     3    2.2948E+02 -1.9821E+00   2.3147E+02  0.000E+00  0.000E+00  0.000E+00  1.01268E+03  3.309E+00  4.798E+01  4.890E+00 -1.351E-01
   1   13    3     8     4    2.3147E+02 -3.1580E+00   2.3462E+02  0.000E+00  0.000E+00  0.000E+00  1.00645E+03  3.323E+00  4.818E+01  4.910E+00 -2.144E-01
   1   13    2     8     5    2.3462E+02 -2.5558E+00   2.3718E+02  0.000E+00  0.000E+00  0.000E+00  1.00021E+03  3.338E+00  4.840E+01  4.932E+00 -1.727E-01
   1   13    1     8     6    2.3718E+02 -1.9851E+00   2.3916E+02  0.000E+00  0.000E+00  0.000E+00  9.95225E+02  3.350E+00  4.858E+01  2.970E+00 -2.228E-01



 UBDSV3 SAVING "           GW ET" ON UNIT  61 AT TIME STEP 15, STRESS PERIOD   7
 UBDSV3 SAVING "    UZF RECHARGE" ON UNIT  61 AT TIME STEP 15, STRESS PERIOD   7
 UBDSV3 SAVING " SURFACE LEAKAGE" ON UNIT  61 AT TIME STEP 15, STRESS PERIOD   7
 UBDSV3 SAVING "       HORT+DUNN" ON UNIT  61 AT TIME STEP 15, STRESS PERIOD   7
 UBDSV3 SAVING "  STORAGE CHANGE" ON UNIT  61 AT TIME STEP 15, STRESS PERIOD   7


UNSATURATED ZONE PACKAGE VOLUMETRIC BUDGET FOR  TIME STEP    15 STRESS PERIOD    7
  ------------------------------------------------------------------------------



     CUMULATIVE VOLUMES      L**3       RATES FOR THIS TIME STEP      L**3/T
     ------------------                 ------------------------

           IN:                                      IN:
           ---                                      ---
        INFILTRATION =    71310443.1217          INFILTRATION =          23.3175

          OUT:                                     OUT:
          ----                                     ----
              UZF ET =    71236250.4348                UZF ET =          23.3175
        UZF RECHARGE =       73224.0000          UZF RECHARGE =       0.0000E+00

            IN - OUT =         968.6870              IN - OUT =       4.2915E-06

          STORAGE:                                 STORAGE:
          --------                                 --------
      STORAGE CHANGE =         968.7292        STORAGE CHANGE =       4.2634E-06

 PERCENT DISCREPANCY IS DIFFERENCE BETWEEN IN-OUT MINUS CHANGE IN STORAGE
 DIVIDED BY THE AVERAGE OF IN AND OUT TIMES 100

 PERCENT DISCREPANCY =           0.00     PERCENT DISCREPANCY =           0.00






 

            AG WELLS      PERIOD    7   STEP  15
 AG WELL      1   LAYER   1   ROW     6   COL     4   RATE    -3.74500    
 AG WELL      2   LAYER   1   ROW     6   COL     5   RATE    -3.74500    
 AG WELL      3   LAYER   1   ROW     7   COL     4   RATE    -3.74500    
 AG WELL      4   LAYER   1   ROW     7   COL     5   RATE    -3.74500    
 AG WELL      5   LAYER   1   ROW     8   COL     4   RATE    -3.74500    
 AG WELL      6   LAYER   1   ROW     8   COL     5   RATE    -3.74500    
 
 

        GW IRRIGATION     PERIOD    7   STEP  15
 AG WELL      1   ROW     6   COL     4   RATE     3.74500    
 AG WELL      2   ROW     6   COL     5   RATE     3.74500    
 AG WELL      3   ROW     7   COL     4   RATE     3.74500    
 AG WELL      4   ROW     7   COL     5   RATE     3.74500    
 AG WELL      5   ROW     8   COL     4   RATE     3.74500    
 AG WELL      6   ROW     8   COL     5   RATE     3.74500    
 
1
  VOLUMETRIC BUDGET FOR AGRICULTURAL FIELDS AT  END OF TIME STEP   15, STRESS PERIOD   7
  ------------------------------------------------------------------------------

     CUMULATIVE VOLUMES      L**3       RATES FOR THIS TIME STEP      L**3/T
     ------------------                 ------------------------

           IN:                                      IN:
           ---                                      ---
               AG WELLS  =    58978152.0000                 AG WELLS  =          22.4700
      DIVERSION SEGMENTS =           0.0000        DIVERSION SEGMENTS =           0.0000
           GW IRRIGATION =           0.0000             GW IRRIGATION =           0.0000
           SW IRRIGATION =           0.0000             SW IRRIGATION =           0.0000
        SYSTEM LOSSES GW =           0.0000          SYSTEM LOSSES GW =           0.0000
        SYSTEM LOSSES SW =           0.0000          SYSTEM LOSSES SW =           0.0000

                TOTAL IN =    58978152.0000                  TOTAL IN =          22.4700

          OUT:                                     OUT:
          ----                                     ----
               AG WELLS  =           0.0000                 AG WELLS  =           0.0000
      DIVERSION SEGMENTS =           0.0000        DIVERSION SEGMENTS =           0.0000
           GW IRRIGATION =    58978152.0000             GW IRRIGATION =          22.4700
           SW IRRIGATION =           0.0000             SW IRRIGATION =           0.0000
        SYSTEM LOSSES GW =           0.0000          SYSTEM LOSSES GW =           0.0000
        SYSTEM LOSSES SW =           0.0000          SYSTEM LOSSES SW =           0.0000

               TOTAL OUT =    58978152.0000                 TOTAL OUT =          22.4700

                IN - OUT =           0.0000                  IN - OUT =           0.0000

     PERCENT DISCREPANCY =           0.00         PERCENT DISCREPANCY =           0.00



1
  VOLUMETRIC BUDGET FOR ENTIRE MODEL AT END OF TIME STEP   15, STRESS PERIOD   7
  ------------------------------------------------------------------------------

     CUMULATIVE VOLUMES      L**3       RATES FOR THIS TIME STEP      L**3/T
     ------------------                 ------------------------

           IN:                                      IN:
           ---                                      ---
             STORAGE     =    65847680.0000               STORAGE     =          21.8828
       CONSTANT HEAD     =           0.0000         CONSTANT HEAD     =           0.0000
     HEAD DEP BOUNDS     =     4153689.5000       HEAD DEP BOUNDS     =           0.2855
      STREAM LEAKAGE     =   184455232.0000        STREAM LEAKAGE     =          13.5172
        UZF RECHARGE     =       73223.9531          UZF RECHARGE     =           0.0000
               GW ET     =           0.0000                 GW ET     =           0.0000
     SURFACE LEAKAGE     =           0.0000       SURFACE LEAKAGE     =           0.0000
           AG WELLS      =           0.0000             AG WELLS      =           0.0000

                TOTAL IN =   254529824.0000                  TOTAL IN =          35.6855

          OUT:                                     OUT:
          ----                                     ----
             STORAGE     =    39421728.0000               STORAGE     =           1.8823
       CONSTANT HEAD     =           0.0000         CONSTANT HEAD     =           0.0000
     HEAD DEP BOUNDS     =     4279811.5000       HEAD DEP BOUNDS     =           0.3000
      STREAM LEAKAGE     =   147660256.0000        STREAM LEAKAGE     =           9.6810
        UZF RECHARGE     =           0.0000          UZF RECHARGE     =           0.0000
               GW ET     =     4192415.0000                 GW ET     =           1.3524
     SURFACE LEAKAGE     =           0.0000       SURFACE LEAKAGE     =           0.0000
           AG WELLS      =    58978152.0000             AG WELLS      =          22.4700

               TOTAL OUT =   254532352.0000                 TOTAL OUT =          35.6856

                IN - OUT =       -2528.0000                  IN - OUT =      -6.4850E-05

     PERCENT DISCREPANCY =          -0.00         PERCENT DISCREPANCY =          -0.00






         TIME SUMMARY AT END OF TIME STEP   15 IN STRESS PERIOD    7
                    SECONDS     MINUTES      HOURS       DAYS        YEARS
                    -----------------------------------------------------------
   TIME STEP LENGTH  87667.      1461.1      24.352      1.0147     2.77799E-03
 STRESS PERIOD TIME 1.31500E+06  21917.      365.28      15.220     4.16698E-02
         TOTAL TIME 1.45514E+07 2.42524E+05  4042.1      168.42     0.46111    
1
 
 SOLVING FOR HEAD 
                                                   Max.-Head-Change                         Max.-Flux-Residual
  Residual-Control   Outer-Iter.   Inner-Iter.     Column Row Layer    Maximum-Head-Change  Column Row Layer    Maximum-Flux-Residual          L2-NORM 
          0                 1           2             4    7     1      -0.5598498760E-01       4    7    1        -0.2936787231E+01      0.6426120567E+01
          0                 2           2             4    7     1       0.5445755440E-02       4    7    1         0.2936749864E+00      0.6426030447E+00
          0                 3           2             4    7     1      -0.3708405939E-03       4    7    1        -0.2055752945E-01      0.4498253868E-01
          0                 4           1             4    7     1       0.1475188843E-04       4    7    1         0.8405655517E-03      0.1839210071E-02

    ------------------------------------------------
       NWT REQUIRED            4 OUTER ITERATIONS 
       AND A TOTAL OF          7 INNER ITERATIONS.
    ------------------------------------------------

 NO OUTPUT CONTROL FOR STRESS PERIOD    7   TIME STEP   16
 
 SOLVING FOR HEAD 
                                                   Max.-Head-Change                         Max.-Flux-Residual
  Residual-Control   Outer-Iter.   Inner-Iter.     Column Row Layer    Maximum-Head-Change  Column Row Layer    Maximum-Flux-Residual          L2-NORM 
          0                 1           2             4    7     1      -0.5544857310E-01       4    7    1        -0.2908947390E+01      0.6358654610E+01
          0                 2           2             4    7     1       0.5393577168E-02       4    7    1         0.2908910151E+00      0.6358576798E+00
          0                 3           2             4    7     1      -0.3672874448E-03       4    7    1        -0.2036265126E-01      0.4451042938E-01
          0                 4           1             4    7     1       0.1461050483E-04       4    7    1         0.8325950143E-03      0.1819895598E-02

    ------------------------------------------------
       NWT REQUIRED            4 OUTER ITERATIONS 
       AND A TOTAL OF          7 INNER ITERATIONS.
    ------------------------------------------------

 NO OUTPUT CONTROL FOR STRESS PERIOD    7   TIME STEP   17
 
 SOLVING FOR HEAD 
                                                   Max.-Head-Change                         Max.-Flux-Residual
  Residual-Control   Outer-Iter.   Inner-Iter.     Column Row Layer    Maximum-Head-Change  Column Row Layer    Maximum-Flux-Residual          L2-NORM 
          0                 1           2             4    7     1      -0.5491193592E-01       4    7    1        -0.2881060053E+01      0.6293333141E+01
          0                 2           2             4    7     1       0.5341377312E-02       4    7    1         0.2881022995E+00      0.6293261269E+00
          0                 3           2             4    7     1      -0.3637328253E-03       4    7    1        -0.2016744091E-01      0.4405327256E-01
          0                 4           1             4    7     1       0.1446906389E-04       4    7    1         0.8246109205E-03      0.1801199072E-02

    ------------------------------------------------
       NWT REQUIRED            4 OUTER ITERATIONS 
       AND A TOTAL OF          7 INNER ITERATIONS.
    ------------------------------------------------

 NO OUTPUT CONTROL FOR STRESS PERIOD    7   TIME STEP   18
 
 SOLVING FOR HEAD 
                                                   Max.-Head-Change                         Max.-Flux-Residual
  Residual-Control   Outer-Iter.   Inner-Iter.     Column Row Layer    Maximum-Head-Change  Column Row Layer    Maximum-Flux-Residual          L2-NORM 
          0                 1           2             4    7     1      -0.5437625234E-01       4    7    1        -0.2853190738E+01      0.6230046976E+01
          0                 2           2             4    7     1       0.5289270280E-02       4    7    1         0.2853153907E+00      0.6229981431E+00
          0                 3           2             4    7     1      -0.3601845256E-03       4    7    1        -0.1997235698E-01      0.4361036654E-01
          0                 4           1             4    7     1       0.1432787348E-04       4    7    1         0.8166319685E-03      0.1783110076E-02

    ------------------------------------------------
       NWT REQUIRED            4 OUTER ITERATIONS 
       AND A TOTAL OF          7 INNER ITERATIONS.
    ------------------------------------------------

 NO OUTPUT CONTROL FOR STRESS PERIOD    7   TIME STEP   19
 
 SOLVING FOR HEAD 
                                                   Max.-Head-Change                         Max.-Flux-Residual
  Residual-Control   Outer-Iter.   Inner-Iter.     Column Row Layer    Maximum-Head-Change  Column Row Layer    Maximum-Flux-Residual          L2-NORM 
          0                 1           2             4    7     1      -0.5384180430E-01       4    7    1        -0.2825356108E+01      0.6168677268E+01
          0                 2           2             4    7     1       0.5237283491E-02       4    7    1         0.2825319544E+00      0.6168616294E+00
          0                 3           2             4    7     1      -0.3566444142E-03       4    7    1        -0.1977751613E-01      0.4318083220E-01
          0                 4           1             4    7     1       0.1418700887E-04       4    7    1         0.8086629630E-03      0.1765543569E-02

    ------------------------------------------------
       NWT REQUIRED            4 OUTER ITERATIONS 
       AND A TOTAL OF          7 INNER ITERATIONS.
    ------------------------------------------------

 NO OUTPUT CONTROL FOR STRESS PERIOD    7   TIME STEP   20
 
 SOLVING FOR HEAD 
                                                   Max.-Head-Change                         Max.-Flux-Residual
  Residual-Control   Outer-Iter.   Inner-Iter.     Column Row Layer    Maximum-Head-Change  Column Row Layer    Maximum-Flux-Residual          L2-NORM 
          0                 1           2             4    7     1      -0.5330911680E-01       4    7    1        -0.2797585557E+01      0.6109124038E+01
          0                 2           2             4    7     1       0.5185468006E-02       4    7    1         0.2797549298E+00      0.6109067004E+00
          0                 3           2             4    7     1      -0.3531159667E-03       4    7    1        -0.1958312401E-01      0.4276400486E-01
          0                 4           1             4    7     1       0.1404660892E-04       4    7    1         0.8007123174E-03      0.1748493435E-02

    ------------------------------------------------
       NWT REQUIRED            4 OUTER ITERATIONS 
       AND A TOTAL OF          7 INNER ITERATIONS.
    ------------------------------------------------

 NO OUTPUT CONTROL FOR STRESS PERIOD    7   TIME STEP   21
 
 SOLVING FOR HEAD 
                                                   Max.-Head-Change                         Max.-Flux-Residual
  Residual-Control   Outer-Iter.   Inner-Iter.     Column Row Layer    Maximum-Head-Change  Column Row Layer    Maximum-Flux-Residual          L2-NORM 
          0                 1           2             4    7     1      -0.5277867193E-01       4    7    1        -0.2769906306E+01      0.6051292002E+01
          0                 2           2             4    7     1       0.5133870714E-02       4    7    1         0.2769870383E+00      0.6051238368E+00
          0                 3           2             4    7     1      -0.3496023773E-03       4    7    1        -0.1938937122E-01      0.4235923129E-01
          0                 4           1             4    7     1       0.1390679980E-04       4    7    1         0.7927878205E-03      0.1731956305E-02

    ------------------------------------------------
       NWT REQUIRED            4 OUTER ITERATIONS 
       AND A TOTAL OF          7 INNER ITERATIONS.
    ------------------------------------------------

 NO OUTPUT CONTROL FOR STRESS PERIOD    7   TIME STEP   22
 
 SOLVING FOR HEAD 
                                                   Max.-Head-Change                         Max.-Flux-Residual
  Residual-Control   Outer-Iter.   Inner-Iter.     Column Row Layer    Maximum-Head-Change  Column Row Layer    Maximum-Flux-Residual          L2-NORM 
          0                 1           2             4    7     1      -0.5225089765E-01       4    7    1        -0.2742343352E+01      0.5995092223E+01
          0                 2           2             4    7     1       0.5082533237E-02       4    7    1         0.2742307794E+00      0.5995041144E+00
          0                 3           2             4    7     1      -0.3461064797E-03       4    7    1        -0.1919643265E-01      0.4196585290E-01
          0                 4           1             4    7     1       0.1376769481E-04       4    7    1         0.7848966175E-03      0.1715858272E-02

    ------------------------------------------------
       NWT REQUIRED            4 OUTER ITERATIONS 
       AND A TOTAL OF          7 INNER ITERATIONS.
    ------------------------------------------------

 NO OUTPUT CONTROL FOR STRESS PERIOD    7   TIME STEP   23
 
 SOLVING FOR HEAD 
                                                   Max.-Head-Change                         Max.-Flux-Residual
  Residual-Control   Outer-Iter.   Inner-Iter.     Column Row Layer    Maximum-Head-Change  Column Row Layer    Maximum-Flux-Residual          L2-NORM 
          0                 1           2             4    7     1      -0.5172645955E-01       4    7    1        -0.2714933648E+01      0.5940462495E+01
          0                 2           2             4    7     1       0.5031520314E-02       4    7    1         0.2714898479E+00      0.5940410885E+00
          0                 3           2             4    7     1      -0.3426326829E-03       4    7    1        -0.1900456700E-01      0.4158344446E-01
          0                 4           1             4    7     1       0.1362946916E-04       4    7    1         0.7770493053E-03      0.1700216019E-02

    ------------------------------------------------
       NWT REQUIRED            4 OUTER ITERATIONS 
       AND A TOTAL OF          7 INNER ITERATIONS.
    ------------------------------------------------

 NO OUTPUT CONTROL FOR STRESS PERIOD    7   TIME STEP   24
 
 SOLVING FOR HEAD 
                                                   Max.-Head-Change                         Max.-Flux-Residual
  Residual-Control   Outer-Iter.   Inner-Iter.     Column Row Layer    Maximum-Head-Change  Column Row Layer    Maximum-Flux-Residual          L2-NORM 
          0                 1           2             4    7     1      -0.5120516530E-01       4    7    1        -0.2687667411E+01      0.5887311041E+01
          0                 2           2             4    7     1       0.4980813299E-02       4    7    1         0.2687632653E+00      0.5887265329E+00
          0                 3           2             4    7     1      -0.3391797138E-03       4    7    1        -0.1881370576E-01      0.4121142726E-01
          0                 4           1             4    7     1       0.1349207266E-04       4    7    1         0.7692430841E-03      0.1685004947E-02

    ------------------------------------------------
       NWT REQUIRED            4 OUTER ITERATIONS 
       AND A TOTAL OF          7 INNER ITERATIONS.
    ------------------------------------------------

 NO OUTPUT CONTROL FOR STRESS PERIOD    7   TIME STEP   25
 
 SOLVING FOR HEAD 
                                                   Max.-Head-Change                         Max.-Flux-Residual
  Residual-Control   Outer-Iter.   Inner-Iter.     Column Row Layer    Maximum-Head-Change  Column Row Layer    Maximum-Flux-Residual          L2-NORM 
          0                 1           2             4    7     1      -0.5068761851E-01       4    7    1        -0.2660578959E+01      0.5835578798E+01
          0                 2           2             4    7     1       0.4930471051E-02       4    7    1         0.2660544631E+00      0.5835538167E+00
          0                 3           2             4    7     1      -0.3357515872E-03       4    7    1        -0.1862408911E-01      0.4084933680E-01
          0                 4           1             4    7     1       0.1335566395E-04       4    7    1         0.7614877554E-03      0.1670198124E-02

    ------------------------------------------------
       NWT REQUIRED            4 OUTER ITERATIONS 
       AND A TOTAL OF          7 INNER ITERATIONS.
    ------------------------------------------------

 NO OUTPUT CONTROL FOR STRESS PERIOD    7   TIME STEP   26
 
 SOLVING FOR HEAD 
                                                   Max.-Head-Change                         Max.-Flux-Residual
  Residual-Control   Outer-Iter.   Inner-Iter.     Column Row Layer    Maximum-Head-Change  Column Row Layer    Maximum-Flux-Residual          L2-NORM 
          0                 1           2             4    7     1      -0.5017438377E-01       4    7    1        -0.2633699578E+01      0.5785208562E+01
          0                 2           2             4    7     1       0.4880554798E-02       4    7    1         0.2633665694E+00      0.5787263047E+00
          0                 3           2             4    7     1      -0.3323524683E-03       4    7    1        -0.1843593604E-01      0.4051141324E-01
          0                 4           1             4    7     1       0.1322041009E-04       4    7    1         0.7537922841E-03      0.1656384695E-02

    ------------------------------------------------
       NWT REQUIRED            4 OUTER ITERATIONS 
       AND A TOTAL OF          7 INNER ITERATIONS.
    ------------------------------------------------

 NO OUTPUT CONTROL FOR STRESS PERIOD    7   TIME STEP   27
 
 SOLVING FOR HEAD 
                                                   Max.-Head-Change                         Max.-Flux-Residual
  Residual-Control   Outer-Iter.   Inner-Iter.     Column Row Layer    Maximum-Head-Change  Column Row Layer    Maximum-Flux-Residual          L2-NORM 
          0                 1           2             4    7     1      -0.4966514396E-01       4    7    1        -0.2607013921E+01      0.5735960234E+01
          0                 2           2             4    7     1       0.4831013516E-02       4    7    1         0.2606980495E+00      0.5735924044E+00
          0                 3           2             4    7     1      -0.3289788840E-03       4    7    1        -0.1824913914E-01      0.4015204500E-01
          0                 4           1             4    7     1       0.1308617176E-04       4    7    1         0.7461522673E-03      0.1641684596E-02

    ------------------------------------------------
       NWT REQUIRED            4 OUTER ITERATIONS 
       AND A TOTAL OF          7 INNER ITERATIONS.
    ------------------------------------------------

 NO OUTPUT CONTROL FOR STRESS PERIOD    7   TIME STEP   28
 
 SOLVING FOR HEAD 
                                                   Max.-Head-Change                         Max.-Flux-Residual
  Residual-Control   Outer-Iter.   Inner-Iter.     Column Row Layer    Maximum-Head-Change  Column Row Layer    Maximum-Flux-Residual          L2-NORM 
          0                 1           2             4    7     1      -0.4916069504E-01       4    7    1        -0.2580565662E+01      0.5687895697E+01
          0                 2           2             4    7     1       0.4781945090E-02       4    7    1         0.2580532704E+00      0.5687860373E+00
          0                 3           2             4    7     1      -0.3256374994E-03       4    7    1        -0.1806400407E-01      0.3981559352E-01
          0                 4           1             4    7     1       0.1295321539E-04       4    7    1         0.7385802528E-03      0.1627921791E-02

    ------------------------------------------------
       NWT REQUIRED            4 OUTER ITERATIONS 
       AND A TOTAL OF          7 INNER ITERATIONS.
    ------------------------------------------------

 NO OUTPUT CONTROL FOR STRESS PERIOD    7   TIME STEP   29
 
 SOLVING FOR HEAD 
                                                   Max.-Head-Change                         Max.-Flux-Residual
  Residual-Control   Outer-Iter.   Inner-Iter.     Column Row Layer    Maximum-Head-Change  Column Row Layer    Maximum-Flux-Residual          L2-NORM 
          0                 1           2             4    7     1      -0.4866097652E-01       4    7    1        -0.2554350702E+01      0.5647169308E+01
          0                 2           2             4    7     1       0.4733336817E-02       4    7    1         0.2554318222E+00      0.5646859046E+00
          0                 3           2             4    7     1      -0.3223274489E-03       4    7    1        -0.1788050216E-01      0.3952607896E-01
          0                 4           1             4    7     1       0.1282150515E-04       4    7    1         0.7310749995E-03      0.1615968692E-02

    ------------------------------------------------
       NWT REQUIRED            4 OUTER ITERATIONS 
       AND A TOTAL OF          7 INNER ITERATIONS.
    ------------------------------------------------

 NO OUTPUT CONTROL FOR STRESS PERIOD    7   TIME STEP   30



 STREAM LISTING     PERIOD      7   STEP       30

 LAYER ROW COL. STREAM  RCH.  FLOW INTO     FLOW TO   FLOW OUT OF   OVRLND.     DIRECT     STREAM       STREAM     STREAM     STREAM   STREAMBED  STREAMBED
                SEG.NO.  NO.  STRM. RCH.    AQUIFER    STRM. RCH.    RUNOFF     PRECIP       ET          HEAD       DEPTH      WIDTH   CONDCTNC.   GRADIENT

   1    1    1     1     1    7.6939E+01  4.2690E-01   7.6512E+01  0.000E+00  0.000E+00  0.000E+00  1.09476E+03  1.708E+00  2.015E+01  9.068E-02  1.569E+00
   1    2    2     1     2    7.6512E+01  6.6216E-01   7.5850E+01  0.000E+00  0.000E+00  0.000E+00  1.08976E+03  1.705E+00  2.010E+01  1.407E-01  1.568E+00
   1    3    3     1     3    7.5850E+01  5.6572E-01   7.5284E+01  0.000E+00  0.000E+00  0.000E+00  1.08412E+03  1.703E+00  2.005E+01  1.203E-01  1.568E+00
   1    3    4     1     4    7.5284E+01  5.2177E-01   7.4762E+01  0.000E+00  0.000E+00  0.000E+00  1.07911E+03  1.700E+00  2.000E+01  1.110E-01  1.567E+00
   1    4    5     2     1    7.2762E+01  4.1250E-01   7.2350E+01  0.000E+00  0.000E+00  0.000E+00  1.07422E+03  2.288E+00  1.200E+01  7.800E-02  1.763E+00
   1    5    6     2     2    7.2350E+01  3.1689E-01   7.2033E+01  0.000E+00  0.000E+00  0.000E+00  1.06879E+03  2.282E+00  1.200E+01  6.000E-02  1.761E+00
   1    6    6     2     3    7.2033E+01  3.1653E-01   7.1717E+01  0.000E+00  0.000E+00  0.000E+00  1.06407E+03  2.276E+00  1.200E+01  6.000E-02  1.759E+00
   1    7    6     2     4    7.1717E+01  3.1617E-01   7.1400E+01  0.000E+00  0.000E+00  0.000E+00  1.05934E+03  2.270E+00  1.200E+01  6.000E-02  1.757E+00
   1    8    6     2     5    7.1400E+01  3.1581E-01   7.1085E+01  0.000E+00  0.000E+00  0.000E+00  1.05462E+03  2.264E+00  1.200E+01  6.000E-02  1.755E+00
   1    3    5     3     1    2.0000E+00  2.8252E-01   1.7175E+00  0.000E+00  0.000E+00  0.000E+00  1.07555E+03  1.909E+00  9.636E+00  7.227E-02  1.955E+00
   1    3    6     3     2    1.7175E+00  2.4905E-01   1.4684E+00  0.000E+00  0.000E+00  0.000E+00  1.07264E+03  1.727E+00  8.909E+00  6.682E-02  1.864E+00
   1    3    7     3     3    1.4684E+00  1.9718E-01   1.2712E+00  0.000E+00  0.000E+00  0.000E+00  1.06987E+03  1.555E+00  8.218E+00  5.547E-02  1.777E+00
   1    4    8     3     4    1.2712E+00  2.2567E-01   1.0456E+00  0.000E+00  0.000E+00  0.000E+00  1.06682E+03  1.364E+00  7.455E+00  6.709E-02  1.682E+00
   1    5    8     3     5    1.0456E+00  1.5790E-01   8.8768E-01  0.000E+00  0.000E+00  0.000E+00  1.06362E+03  1.164E+00  6.655E+00  4.991E-02  1.582E+00
   1    6    8     3     6    8.8768E-01  5.5980E-02   8.3170E-01  0.000E+00  0.000E+00  0.000E+00  1.06158E+03  1.036E+00  6.145E+00  1.844E-02  1.518E+00
   1    5   10     4     1    1.0000E+01  9.0919E-02   9.9091E+00  0.000E+00  0.000E+00  0.000E+00  1.07836E+03  6.368E-01  1.000E+01  2.500E-02  1.212E+00
   1    5    9     4     2    9.9091E+00  1.8158E-01   9.7275E+00  0.000E+00  0.000E+00  0.000E+00  1.07154E+03  6.315E-01  1.000E+01  5.000E-02  1.211E+00
   1    6    8     4     3    9.7275E+00  1.2689E-01   9.6006E+00  0.000E+00  0.000E+00  0.000E+00  1.06381E+03  6.256E-01  1.000E+01  3.500E-02  1.209E+00
   1    6    8     5     1    1.0432E+01  2.2686E-01   1.0205E+01  0.000E+00  0.000E+00  0.000E+00  1.05868E+03  6.790E-01  1.542E+01  6.166E-02  1.226E+00
   1    7    7     5     2    1.0205E+01  2.7894E-01   9.9265E+00  0.000E+00  0.000E+00  0.000E+00  1.05417E+03  6.732E-01  1.519E+01  7.594E-02  1.224E+00
   1    8    7     5     3    9.9265E+00  1.9221E-01   9.7343E+00  0.000E+00  0.000E+00  0.000E+00  1.04992E+03  6.676E-01  1.497E+01  5.241E-02  1.223E+00
   1    8    6     5     4    9.7343E+00  1.3577E-01   9.5985E+00  0.000E+00  0.000E+00  0.000E+00  1.04691E+03  6.637E-01  1.482E+01  3.706E-02  1.221E+00
   1    9    6     6     1    8.0683E+01  3.2780E-01   8.0355E+01  0.000E+00  0.000E+00  0.000E+00  1.04519E+03  2.463E+00  1.200E+01  6.000E-02  1.821E+00
   1   10    7     6     2    8.0355E+01  3.2743E-01   8.0028E+01  0.000E+00  0.000E+00  0.000E+00  1.04064E+03  2.457E+00  1.200E+01  6.000E-02  1.819E+00
   1   11    7     6     3    8.0028E+01  3.2707E-01   7.9701E+01  0.000E+00  0.000E+00  0.000E+00  1.03609E+03  2.451E+00  1.200E+01  6.000E-02  1.817E+00
   1   12    7     6     4    7.9701E+01  3.2671E-01   7.9374E+01  0.000E+00  0.000E+00  0.000E+00  1.03154E+03  2.445E+00  1.200E+01  6.000E-02  1.815E+00
   1   13    7     6     5    7.9374E+01  2.6851E-02   7.9347E+01  0.000E+00  0.000E+00  0.000E+00  1.02835E+03  2.442E+00  1.200E+01  2.400E-02  3.729E-01
   1   14    9     7     1    1.5000E+02  1.3318E+00   1.4867E+02  0.000E+00  0.000E+00  0.000E+00  1.03987E+03  2.288E+00  5.529E+01  5.593E-01  7.937E-01
   1   13    8     7     2    1.4867E+02  1.8024E+00   1.4687E+02  0.000E+00  0.000E+00  0.000E+00  1.03478E+03  2.279E+00  5.526E+01  6.148E-01  9.773E-01
   1   13    7     7     3    1.4687E+02  1.3727E+00   1.4549E+02  0.000E+00  0.000E+00  0.000E+00  1.02969E+03  2.271E+00  5.522E+01  5.585E-01  8.193E-01
   1   13    6     8     1    2.2484E+02  1.0256E+00   2.2381E+02  0.000E+00  0.000E+00  0.000E+00  1.02515E+03  3.276E+00  4.750E+01  4.840E-01  7.063E-01
   1   13    5     8     2    2.2381E+02  2.0293E-01   2.2361E+02  0.000E+00  0.000E+00  0.000E+00  1.01890E+03  3.272E+00  4.745E+01  4.835E-01  1.399E-01
   1   13    4     8     3    2.2361E+02 -2.0940E+00   2.2571E+02  0.000E+00  0.000E+00  0.000E+00  1.01265E+03  3.278E+00  4.752E+01  4.843E+00 -1.441E-01
   1   13    3     8     4    2.2571E+02 -3.2525E+00   2.2896E+02  0.000E+00  0.000E+00  0.000E+00  1.00642E+03  3.292E+00  4.774E+01  4.864E+00 -2.229E-01
   1   13    2     8     5    2.2896E+02 -2.6238E+00   2.3158E+02  0.000E+00  0.000E+00  0.000E+00  1.00018E+03  3.308E+00  4.797E+01  4.888E+00 -1.789E-01
   1   13    1     8     6    2.3158E+02 -2.0372E+00   2.3362E+02  0.000E+00  0.000E+00  0.000E+00  9.95196E+02  3.321E+00  4.815E+01  2.944E+00 -2.307E-01





UNSATURATED ZONE PACKAGE VOLUMETRIC BUDGET FOR  TIME STEP    30 STRESS PERIOD    7
  ------------------------------------------------------------------------------



     CUMULATIVE VOLUMES      L**3       RATES FOR THIS TIME STEP      L**3/T
     ------------------                 ------------------------

           IN:                                      IN:
           ---                                      ---
        INFILTRATION =   101972961.1849          INFILTRATION =          23.3175

          OUT:                                     OUT:
          ----                                     ----
              UZF ET =   101898762.8730                UZF ET =          23.3175
        UZF RECHARGE =       73224.0000          UZF RECHARGE =       0.0000E+00

            IN - OUT =         974.3120              IN - OUT =       4.2915E-06

          STORAGE:                                 STORAGE:
          --------                                 --------
      STORAGE CHANGE =         974.3347        STORAGE CHANGE =       4.2634E-06

 PERCENT DISCREPANCY IS DIFFERENCE BETWEEN IN-OUT MINUS CHANGE IN STORAGE
 DIVIDED BY THE AVERAGE OF IN AND OUT TIMES 100

 PERCENT DISCREPANCY =           0.00     PERCENT DISCREPANCY =           0.00






1
  VOLUMETRIC BUDGET FOR AGRICULTURAL FIELDS AT  END OF TIME STEP   30, STRESS PERIOD   7
  ------------------------------------------------------------------------------

     CUMULATIVE VOLUMES      L**3       RATES FOR THIS TIME STEP      L**3/T
     ------------------                 ------------------------

           IN:                                      IN:
           ---                                      ---
               AG WELLS  =    88526232.0000                 AG WELLS  =          22.4700
      DIVERSION SEGMENTS =           0.0000        DIVERSION SEGMENTS =           0.0000
           GW IRRIGATION =           0.0000             GW IRRIGATION =           0.0000
           SW IRRIGATION =           0.0000             SW IRRIGATION =           0.0000
        SYSTEM LOSSES GW =           0.0000          SYSTEM LOSSES GW =           0.0000
        SYSTEM LOSSES SW =           0.0000          SYSTEM LOSSES SW =           0.0000

                TOTAL IN =    88526232.0000                  TOTAL IN =          22.4700

          OUT:                                     OUT:
          ----                                     ----
               AG WELLS  =           0.0000                 AG WELLS  =           0.0000
      DIVERSION SEGMENTS =           0.0000        DIVERSION SEGMENTS =           0.0000
           GW IRRIGATION =    88526232.0000             GW IRRIGATION =          22.4700
           SW IRRIGATION =           0.0000             SW IRRIGATION =           0.0000
        SYSTEM LOSSES GW =           0.0000          SYSTEM LOSSES GW =           0.0000
        SYSTEM LOSSES SW =           0.0000          SYSTEM LOSSES SW =           0.0000

               TOTAL OUT =    88526232.0000                 TOTAL OUT =          22.4700

                IN - OUT =           0.0000                  IN - OUT =           0.0000

     PERCENT DISCREPANCY =           0.00         PERCENT DISCREPANCY =           0.00



1
  VOLUMETRIC BUDGET FOR ENTIRE MODEL AT END OF TIME STEP   30, STRESS PERIOD   7
  ------------------------------------------------------------------------------

     CUMULATIVE VOLUMES      L**3       RATES FOR THIS TIME STEP      L**3/T
     ------------------                 ------------------------

           IN:                                      IN:
           ---                                      ---
             STORAGE     =    94421864.0000               STORAGE     =          22.0169
       CONSTANT HEAD     =           0.0000         CONSTANT HEAD     =           0.0000
     HEAD DEP BOUNDS     =     4529104.5000       HEAD DEP BOUNDS     =           0.2855
      STREAM LEAKAGE     =   202204496.0000        STREAM LEAKAGE     =          13.3273
        UZF RECHARGE     =       73223.9531          UZF RECHARGE     =           0.0000
               GW ET     =           0.0000                 GW ET     =           0.0000
     SURFACE LEAKAGE     =           0.0000       SURFACE LEAKAGE     =           0.0000
           AG WELLS      =           0.0000             AG WELLS      =           0.0000

                TOTAL IN =   301228672.0000                  TOTAL IN =          35.6296

          OUT:                                     OUT:
          ----                                     ----
             STORAGE     =    41763044.0000               STORAGE     =           1.5739
       CONSTANT HEAD     =           0.0000         CONSTANT HEAD     =           0.0000
     HEAD DEP BOUNDS     =     4674104.5000       HEAD DEP BOUNDS     =           0.2997
      STREAM LEAKAGE     =   160347088.0000        STREAM LEAKAGE     =          10.0076
        UZF RECHARGE     =           0.0000          UZF RECHARGE     =           0.0000
               GW ET     =     5920915.5000                 GW ET     =           1.2785
     SURFACE LEAKAGE     =           0.0000       SURFACE LEAKAGE     =           0.0000
           AG WELLS      =    88526232.0000             AG WELLS      =          22.4700

               TOTAL OUT =   301231392.0000                 TOTAL OUT =          35.6297

                IN - OUT =       -2720.0000                  IN - OUT =      -7.2479E-05

     PERCENT DISCREPANCY =          -0.00         PERCENT DISCREPANCY =          -0.00






         TIME SUMMARY AT END OF TIME STEP   30 IN STRESS PERIOD    7
                    SECONDS     MINUTES      HOURS       DAYS        YEARS
                    -----------------------------------------------------------
   TIME STEP LENGTH  87667.      1461.1      24.352      1.0147     2.77799E-03
 STRESS PERIOD TIME 2.63000E+06  43833.      730.56      30.440     8.33397E-02
         TOTAL TIME 1.58664E+07 2.64440E+05  4407.3      183.64     0.50278    
1
1
                            STRESS PERIOD NO.    8, LENGTH =   2630000.    
                            -----------------------------------------------

                              NUMBER OF TIME STEPS =    30

                               MULTIPLIER FOR DELT =     1.000

                            INITIAL TIME STEP SIZE =   87666.66    

 REUSING NON-PARAMETER GHB CELLS FROM LAST STRESS PERIOD

      2 GHB CELLS

 REUSING STREAM SEGMENT DATA FROM LAST STRESS PERIOD



            AREAL INFILTRATION RATE
 READING ON UNIT   19 WITH FORMAT: (FREE)              

            1           2           3           4           5           6           7           8           9          10
 ........................................................................................................................
   1   1.0000E-10  2.0000E-10   0.000       0.000       0.000       0.000       0.000       0.000       0.000       0.000    
   2   2.0000E-10  1.0000E-10  2.0000E-10   0.000       0.000      8.0000E-10  8.0000E-10  5.0000E-10   0.000       0.000    
   3    0.000      5.0000E-10  1.0000E-10  1.0000E-10  8.0000E-10  8.0000E-10  5.0000E-10  5.0000E-10   0.000       0.000    
   4   8.0000E-10  5.0000E-10  1.0000E-10  1.0000E-10  1.0000E-10  1.0000E-10  1.0000E-10  1.0000E-10  2.0000E-10   0.000    
   5   8.0000E-10  5.0000E-10  1.0000E-10  1.0000E-10  1.0000E-10  1.0000E-10  1.0000E-10  1.0000E-10  1.0000E-10  1.0000E-10
   6   8.0000E-10  5.0000E-10  5.0000E-10  2.0000E-10  2.0000E-10  1.0000E-10  1.0000E-10  1.0000E-10  1.0000E-10  5.0000E-10
   7   8.0000E-10  5.0000E-10  5.0000E-10  2.0000E-10  2.0000E-10  1.0000E-10  1.0000E-10  2.0000E-10  2.0000E-10   0.000    
   8    0.000      5.0000E-10  5.0000E-10  2.0000E-10  2.0000E-10  1.0000E-10  1.0000E-10  2.0000E-10  5.0000E-10   0.000    
   9    0.000      5.0000E-10  5.0000E-10  2.0000E-10  2.0000E-10  1.0000E-10  1.0000E-10  2.0000E-10  5.0000E-10   0.000    
  10    0.000      5.0000E-10  5.0000E-10  2.0000E-10  2.0000E-10  1.0000E-10  1.0000E-10  2.0000E-10  5.0000E-10  8.0000E-10
  11    0.000      1.0000E-10  1.0000E-10  1.0000E-10  1.0000E-10  1.0000E-10  1.0000E-10  2.0000E-10  5.0000E-10   0.000    
  12   1.0000E-10  1.0000E-10  1.0000E-10  1.0000E-10  1.0000E-10  1.0000E-10  1.0000E-10  1.0000E-10  2.0000E-10   0.000    
  13   1.0000E-10  1.0000E-10  2.0000E-10  2.0000E-10  2.0000E-10  2.0000E-10  2.0000E-10  1.0000E-10  1.0000E-10   0.000    
  14    0.000      2.0000E-10  5.0000E-10  5.0000E-10  5.0000E-10  5.0000E-10  5.0000E-10  2.0000E-10  1.0000E-10   0.000    
  15    0.000       0.000      8.0000E-10  8.0000E-10  8.0000E-10  8.0000E-10   0.000       0.000       0.000       0.000    

                  ET RATE =  4.000000E-07

 USING ET EXTINCTION DEPTH FROM PREVIOUS STRESS PERIOD. CURRENT PERIOD IS:       8

 USING EXTINCTION WATER CONTENT FROM PREVIOUS STRESS PERIOD. CURRENT PERIOD IS:       8

 USING AIR ENTRY PRESSURE FROM PREVIOUS STRESS PERIOD. CURRENT PERIOD IS:       8

 USING ROOT PRESSURE HEAD FROM PREVIOUS STRESS PERIOD. CURRENT PERIOD IS:       8

 USING ROOT ACTIVITY FROM PREVIOUS STRESS PERIOD. CURRENT PERIOD IS:       8

 PROCESSING AG STRESS PERIOD DATA

 READING AG STRESS PERIOD DATA

 READING IRRIGATION WELL

 END PROCESSING AG STRESS PERIOD DATA OPTIONS
 
 SOLVING FOR HEAD 
                                                   Max.-Head-Change                         Max.-Flux-Residual
  Residual-Control   Outer-Iter.   Inner-Iter.     Column Row Layer    Maximum-Head-Change  Column Row Layer    Maximum-Flux-Residual          L2-NORM 
          0                 1           2             4    7     1      -0.1678712335E+00       4    7    1        -0.8778388166E+01      0.2061078989E+02
          0                 2           2             4   13     1       0.1542143380E-02       4   13    1         0.1203989372E+00      0.3045019206E+00
          0                 3           2             5    7     1      -0.6049984942E-01       4    7    1        -0.3195229664E+01      0.7815914675E+01
          0                 4           2             4    7     1      -0.6010807305E-02       4    7    1        -0.3402379374E+00      0.4647281214E+00
          0                 5           2             5    7     1      -0.7491621141E-03       4    7    1        -0.4030427424E-01      0.9708292593E-01
          0                 6           1             5    7     1       0.5891039079E-04       5    7    1         0.3233416680E-02      0.7233113038E-02

    ------------------------------------------------
       NWT REQUIRED            6 OUTER ITERATIONS 
       AND A TOTAL OF         11 INNER ITERATIONS.
    ------------------------------------------------

 OUTPUT CONTROL FOR STRESS PERIOD    8   TIME STEP    1
    PRINT BUDGET
    SAVE BUDGET
 UBDSV1 SAVING "         STORAGE" ON UNIT 102 AT TIME STEP  1, STRESS PERIOD   8
 UBDSV2 SAVING "   CONSTANT HEAD" ON UNIT 102 AT TIME STEP  1, STRESS PERIOD   8
 UBDSV1 SAVING "FLOW RIGHT FACE " ON UNIT 102 AT TIME STEP  1, STRESS PERIOD   8
 UBDSV1 SAVING "FLOW FRONT FACE " ON UNIT 102 AT TIME STEP  1, STRESS PERIOD   8

  HEAD DEP BOUNDS   PERIOD    8   STEP     1
 BOUNDARY      1   LAYER   1   ROW    13   COL     1   RATE   -0.299663    
 BOUNDARY      2   LAYER   1   ROW    14   COL     9   RATE    0.285485    



 STREAM LISTING     PERIOD      8   STEP        1

 LAYER ROW COL. STREAM  RCH.  FLOW INTO     FLOW TO   FLOW OUT OF   OVRLND.     DIRECT     STREAM       STREAM     STREAM     STREAM   STREAMBED  STREAMBED
                SEG.NO.  NO.  STRM. RCH.    AQUIFER    STRM. RCH.    RUNOFF     PRECIP       ET          HEAD       DEPTH      WIDTH   CONDCTNC.   GRADIENT

   1    1    1     1     1    7.5000E+01  4.2232E-01   7.4578E+01  0.000E+00  0.000E+00  0.000E+00  1.09475E+03  1.698E+00  1.998E+01  8.990E-02  1.566E+00
   1    2    2     1     2    7.4578E+01  6.5422E-01   7.3924E+01  0.000E+00  0.000E+00  0.000E+00  1.08975E+03  1.692E+00  1.992E+01  1.394E-01  1.564E+00
   1    3    3     1     3    7.3924E+01  5.5813E-01   7.3366E+01  0.000E+00  0.000E+00  0.000E+00  1.08410E+03  1.685E+00  1.985E+01  1.191E-01  1.562E+00
   1    3    4     1     4    7.3366E+01  5.1412E-01   7.2852E+01  0.000E+00  0.000E+00  0.000E+00  1.07909E+03  1.679E+00  1.980E+01  1.099E-01  1.560E+00
   1    4    5     2     1    7.0852E+01  4.0967E-01   7.0442E+01  0.000E+00  0.000E+00  0.000E+00  1.07419E+03  2.252E+00  1.200E+01  7.800E-02  1.751E+00
   1    5    6     2     2    7.0442E+01  3.1471E-01   7.0127E+01  0.000E+00  0.000E+00  0.000E+00  1.06875E+03  2.245E+00  1.200E+01  6.000E-02  1.748E+00
   1    6    6     2     3    7.0127E+01  3.1435E-01   6.9813E+01  0.000E+00  0.000E+00  0.000E+00  1.06403E+03  2.239E+00  1.200E+01  6.000E-02  1.746E+00
   1    7    6     2     4    6.9813E+01  3.1399E-01   6.9499E+01  0.000E+00  0.000E+00  0.000E+00  1.05931E+03  2.233E+00  1.200E+01  6.000E-02  1.744E+00
   1    8    6     2     5    6.9499E+01  3.1363E-01   6.9185E+01  0.000E+00  0.000E+00  0.000E+00  1.05459E+03  2.227E+00  1.200E+01  6.000E-02  1.742E+00
   1    3    5     3     1    2.0000E+00  2.8252E-01   1.7175E+00  0.000E+00  0.000E+00  0.000E+00  1.07555E+03  1.909E+00  9.636E+00  7.227E-02  1.955E+00
   1    3    6     3     2    1.7175E+00  2.4905E-01   1.4684E+00  0.000E+00  0.000E+00  0.000E+00  1.07264E+03  1.727E+00  8.909E+00  6.682E-02  1.864E+00
   1    3    7     3     3    1.4684E+00  1.9718E-01   1.2712E+00  0.000E+00  0.000E+00  0.000E+00  1.06987E+03  1.555E+00  8.218E+00  5.547E-02  1.777E+00
   1    4    8     3     4    1.2712E+00  2.2567E-01   1.0456E+00  0.000E+00  0.000E+00  0.000E+00  1.06682E+03  1.364E+00  7.455E+00  6.709E-02  1.682E+00
   1    5    8     3     5    1.0456E+00  1.5790E-01   8.8768E-01  0.000E+00  0.000E+00  0.000E+00  1.06362E+03  1.164E+00  6.655E+00  4.991E-02  1.582E+00
   1    6    8     3     6    8.8768E-01  5.5980E-02   8.3170E-01  0.000E+00  0.000E+00  0.000E+00  1.06158E+03  1.036E+00  6.145E+00  1.844E-02  1.518E+00
   1    5   10     4     1    1.0000E+01  9.0919E-02   9.9091E+00  0.000E+00  0.000E+00  0.000E+00  1.07836E+03  6.368E-01  1.000E+01  2.500E-02  1.212E+00
   1    5    9     4     2    9.9091E+00  1.8158E-01   9.7275E+00  0.000E+00  0.000E+00  0.000E+00  1.07154E+03  6.315E-01  1.000E+01  5.000E-02  1.211E+00
   1    6    8     4     3    9.7275E+00  1.2689E-01   9.6006E+00  0.000E+00  0.000E+00  0.000E+00  1.06381E+03  6.256E-01  1.000E+01  3.500E-02  1.209E+00
   1    6    8     5     1    1.0432E+01  2.2686E-01   1.0205E+01  0.000E+00  0.000E+00  0.000E+00  1.05868E+03  6.790E-01  1.542E+01  6.166E-02  1.226E+00
   1    7    7     5     2    1.0205E+01  2.7894E-01   9.9265E+00  0.000E+00  0.000E+00  0.000E+00  1.05417E+03  6.732E-01  1.519E+01  7.594E-02  1.224E+00
   1    8    7     5     3    9.9265E+00  1.9221E-01   9.7343E+00  0.000E+00  0.000E+00  0.000E+00  1.04992E+03  6.676E-01  1.497E+01  5.241E-02  1.223E+00
   1    8    6     5     4    9.7343E+00  1.3577E-01   9.5985E+00  0.000E+00  0.000E+00  0.000E+00  1.04691E+03  6.637E-01  1.482E+01  3.706E-02  1.221E+00
   1    9    6     6     1    7.8784E+01  3.2569E-01   7.8458E+01  0.000E+00  0.000E+00  0.000E+00  1.04516E+03  2.428E+00  1.200E+01  6.000E-02  1.809E+00
   1   10    7     6     2    7.8458E+01  3.2533E-01   7.8133E+01  0.000E+00  0.000E+00  0.000E+00  1.04060E+03  2.422E+00  1.200E+01  6.000E-02  1.807E+00
   1   11    7     6     3    7.8133E+01  3.2497E-01   7.7808E+01  0.000E+00  0.000E+00  0.000E+00  1.03605E+03  2.416E+00  1.200E+01  6.000E-02  1.805E+00
   1   12    7     6     4    7.7808E+01  3.2461E-01   7.7483E+01  0.000E+00  0.000E+00  0.000E+00  1.03150E+03  2.410E+00  1.200E+01  6.000E-02  1.803E+00
   1   13    7     6     5    7.7483E+01  2.5997E-02   7.7457E+01  0.000E+00  0.000E+00  0.000E+00  1.02832E+03  2.407E+00  1.200E+01  2.400E-02  3.611E-01
   1   14    9     7     1    1.5000E+02  1.3318E+00   1.4867E+02  0.000E+00  0.000E+00  0.000E+00  1.03987E+03  2.288E+00  5.529E+01  5.593E-01  7.937E-01
   1   13    8     7     2    1.4867E+02  1.8022E+00   1.4687E+02  0.000E+00  0.000E+00  0.000E+00  1.03478E+03  2.279E+00  5.526E+01  6.148E-01  9.772E-01
   1   13    7     7     3    1.4687E+02  1.3725E+00   1.4549E+02  0.000E+00  0.000E+00  0.000E+00  1.02969E+03  2.271E+00  5.522E+01  5.585E-01  8.192E-01
   1   13    6     8     1    2.2295E+02  1.0174E+00   2.2193E+02  0.000E+00  0.000E+00  0.000E+00  1.02514E+03  3.265E+00  4.735E+01  4.825E-01  7.028E-01
   1   13    5     8     2    2.2193E+02  1.9745E-01   2.2174E+02  0.000E+00  0.000E+00  0.000E+00  1.01889E+03  3.262E+00  4.730E+01  4.820E-01  1.366E-01
   1   13    4     8     3    2.2174E+02 -2.0673E+00   2.2380E+02  0.000E+00  0.000E+00  0.000E+00  1.01264E+03  3.267E+00  4.737E+01  4.828E+00 -1.427E-01
   1   13    3     8     4    2.2380E+02 -3.2221E+00   2.2703E+02  0.000E+00  0.000E+00  0.000E+00  1.00641E+03  3.282E+00  4.758E+01  4.849E+00 -2.215E-01
   1   13    2     8     5    2.2703E+02 -2.6521E+00   2.2968E+02  0.000E+00  0.000E+00  0.000E+00  1.00017E+03  3.298E+00  4.782E+01  4.873E+00 -1.814E-01
   1   13    1     8     6    2.2968E+02 -2.0559E+00   2.3173E+02  0.000E+00  0.000E+00  0.000E+00  9.95185E+02  3.310E+00  4.800E+01  2.935E+00 -2.335E-01



 UBDSV3 SAVING "           GW ET" ON UNIT  61 AT TIME STEP  1, STRESS PERIOD   8
 UBDSV3 SAVING "    UZF RECHARGE" ON UNIT  61 AT TIME STEP  1, STRESS PERIOD   8
 UBDSV3 SAVING " SURFACE LEAKAGE" ON UNIT  61 AT TIME STEP  1, STRESS PERIOD   8
 UBDSV3 SAVING "       HORT+DUNN" ON UNIT  61 AT TIME STEP  1, STRESS PERIOD   8
 UBDSV3 SAVING "  STORAGE CHANGE" ON UNIT  61 AT TIME STEP  1, STRESS PERIOD   8


UNSATURATED ZONE PACKAGE VOLUMETRIC BUDGET FOR  TIME STEP     1 STRESS PERIOD    8
  ------------------------------------------------------------------------------



     CUMULATIVE VOLUMES      L**3       RATES FOR THIS TIME STEP      L**3/T
     ------------------                 ------------------------

           IN:                                      IN:
           ---                                      ---
        INFILTRATION =   109717577.9308          INFILTRATION =          88.3416

          OUT:                                     OUT:
          ----                                     ----
              UZF ET =   107230430.1189                UZF ET =          60.8175
        UZF RECHARGE =       73224.0000          UZF RECHARGE =       0.0000E+00

            IN - OUT =     2413923.8120              IN - OUT =          27.5241

          STORAGE:                                 STORAGE:
          --------                                 --------
      STORAGE CHANGE =     2413924.0362        STORAGE CHANGE =          27.5241

 PERCENT DISCREPANCY IS DIFFERENCE BETWEEN IN-OUT MINUS CHANGE IN STORAGE
 DIVIDED BY THE AVERAGE OF IN AND OUT TIMES 100

 PERCENT DISCREPANCY =           0.00     PERCENT DISCREPANCY =          -0.00






 

            AG WELLS      PERIOD    8   STEP   1
 AG WELL      1   LAYER   1   ROW     6   COL     4   RATE    -14.5824    
 AG WELL      2   LAYER   1   ROW     6   COL     5   RATE    -14.5824    
 AG WELL      3   LAYER   1   ROW     7   COL     4   RATE    -14.5824    
 AG WELL      4   LAYER   1   ROW     7   COL     5   RATE    -14.5824    
 AG WELL      5   LAYER   1   ROW     8   COL     4   RATE    -14.5824    
 AG WELL      6   LAYER   1   ROW     8   COL     5   RATE    -14.5824    
 
 

        GW IRRIGATION     PERIOD    8   STEP   1
 AG WELL      1   ROW     6   COL     4   RATE     14.5824    
 AG WELL      2   ROW     6   COL     5   RATE     14.5824    
 AG WELL      3   ROW     7   COL     4   RATE     14.5824    
 AG WELL      4   ROW     7   COL     5   RATE     14.5824    
 AG WELL      5   ROW     8   COL     4   RATE     14.5824    
 AG WELL      6   ROW     8   COL     5   RATE     14.5824    
 
1
  VOLUMETRIC BUDGET FOR AGRICULTURAL FIELDS AT  END OF TIME STEP    1, STRESS PERIOD   8
  ------------------------------------------------------------------------------

     CUMULATIVE VOLUMES      L**3       RATES FOR THIS TIME STEP      L**3/T
     ------------------                 ------------------------

           IN:                                      IN:
           ---                                      ---
               AG WELLS  =    96196552.0000                 AG WELLS  =          87.4941
      DIVERSION SEGMENTS =           0.0000        DIVERSION SEGMENTS =           0.0000
           GW IRRIGATION =           0.0000             GW IRRIGATION =           0.0000
           SW IRRIGATION =           0.0000             SW IRRIGATION =           0.0000
        SYSTEM LOSSES GW =           0.0000          SYSTEM LOSSES GW =           0.0000
        SYSTEM LOSSES SW =           0.0000          SYSTEM LOSSES SW =           0.0000

                TOTAL IN =    96196552.0000                  TOTAL IN =          87.4941

          OUT:                                     OUT:
          ----                                     ----
               AG WELLS  =           0.0000                 AG WELLS  =           0.0000
      DIVERSION SEGMENTS =           0.0000        DIVERSION SEGMENTS =           0.0000
           GW IRRIGATION =    96196552.0000             GW IRRIGATION =          87.4941
           SW IRRIGATION =           0.0000             SW IRRIGATION =           0.0000
        SYSTEM LOSSES GW =           0.0000          SYSTEM LOSSES GW =           0.0000
        SYSTEM LOSSES SW =           0.0000          SYSTEM LOSSES SW =           0.0000

               TOTAL OUT =    96196552.0000                 TOTAL OUT =          87.4941

                IN - OUT =           0.0000                  IN - OUT =           0.0000

     PERCENT DISCREPANCY =           0.00         PERCENT DISCREPANCY =           0.00



1
  VOLUMETRIC BUDGET FOR ENTIRE MODEL AT END OF TIME STEP    1, STRESS PERIOD   8
  ------------------------------------------------------------------------------

     CUMULATIVE VOLUMES      L**3       RATES FOR THIS TIME STEP      L**3/T
     ------------------                 ------------------------

           IN:                                      IN:
           ---                                      ---
             STORAGE     =   102186880.0000               STORAGE     =          88.5743
       CONSTANT HEAD     =           0.0000         CONSTANT HEAD     =           0.0000
     HEAD DEP BOUNDS     =     4554132.0000       HEAD DEP BOUNDS     =           0.2855
      STREAM LEAKAGE     =   203367344.0000        STREAM LEAKAGE     =          13.2645
        UZF RECHARGE     =       73223.9531          UZF RECHARGE     =           0.0000
               GW ET     =           0.0000                 GW ET     =           0.0000
     SURFACE LEAKAGE     =           0.0000       SURFACE LEAKAGE     =           0.0000
           AG WELLS      =           0.0000             AG WELLS      =           0.0000

                TOTAL IN =   310181568.0000                  TOTAL IN =         102.1243

          OUT:                                     OUT:
          ----                                     ----
             STORAGE     =    41894928.0000               STORAGE     =           1.5044
       CONSTANT HEAD     =           0.0000         CONSTANT HEAD     =           0.0000
     HEAD DEP BOUNDS     =     4700375.0000       HEAD DEP BOUNDS     =           0.2997
      STREAM LEAKAGE     =   161223520.0000        STREAM LEAKAGE     =           9.9973
        UZF RECHARGE     =           0.0000          UZF RECHARGE     =           0.0000
               GW ET     =     6169000.0000                 GW ET     =           2.8299
     SURFACE LEAKAGE     =           0.0000       SURFACE LEAKAGE     =           0.0000
           AG WELLS      =    96196552.0000             AG WELLS      =          87.4941

               TOTAL OUT =   310184352.0000                 TOTAL OUT =         102.1254

                IN - OUT =       -2784.0000                  IN - OUT =      -1.0986E-03

     PERCENT DISCREPANCY =          -0.00         PERCENT DISCREPANCY =          -0.00






         TIME SUMMARY AT END OF TIME STEP    1 IN STRESS PERIOD    8
                    SECONDS     MINUTES      HOURS       DAYS        YEARS
                    -----------------------------------------------------------
   TIME STEP LENGTH  87667.      1461.1      24.352      1.0147     2.77799E-03
 STRESS PERIOD TIME  87667.      1461.1      24.352      1.0147     2.77799E-03
         TOTAL TIME 1.59541E+07 2.65901E+05  4431.7      184.65     0.50555    
1
 
 SOLVING FOR HEAD 
                                                   Max.-Head-Change                         Max.-Flux-Residual
  Residual-Control   Outer-Iter.   Inner-Iter.     Column Row Layer    Maximum-Head-Change  Column Row Layer    Maximum-Flux-Residual          L2-NORM 
          0                 1           2             4    7     1      -0.1662807325E+00       4    7    1        -0.8700267167E+01      0.2007779542E+02
          0                 2           2             5    8     1      -0.1902822385E-02       5    8    1        -0.1061566220E+00      0.3391894688E+00
          0                 3           2             4    7     1      -0.6117982347E-01       4    7    1        -0.3194482342E+01      0.7810385144E+01
          0                 4           2             4    7     1      -0.2736947594E-02       5    8    1        -0.1437804954E+00      0.3513583149E+00
          0                 5           2             4    7     1      -0.7574554946E-03       4    7    1        -0.3954996864E-01      0.9673380690E-01
          0                 6           1             4    7     1       0.5957237721E-04       4    7    1         0.3197872193E-02      0.7820660720E-02

    ------------------------------------------------
       NWT REQUIRED            6 OUTER ITERATIONS 
       AND A TOTAL OF         11 INNER ITERATIONS.
    ------------------------------------------------

 NO OUTPUT CONTROL FOR STRESS PERIOD    8   TIME STEP    2
 
 SOLVING FOR HEAD 
                                                   Max.-Head-Change                         Max.-Flux-Residual
  Residual-Control   Outer-Iter.   Inner-Iter.     Column Row Layer    Maximum-Head-Change  Column Row Layer    Maximum-Flux-Residual          L2-NORM 
          0                 1           2             4    7     1      -0.1646115628E+00       4    7    1        -0.8617633996E+01      0.1959343045E+02
          0                 2           2             5    8     1      -0.2495389496E-02       5    8    1        -0.1387803959E+00      0.3919224752E+00
          0                 3           2             4    7     1      -0.6116330590E-01       4    7    1        -0.3193657163E+01      0.7805037736E+01
          0                 4           2             4    7     1      -0.2738625781E-02       5    8    1        -0.1441034606E+00      0.3518890639E+00
          0                 5           2             4    7     1      -0.7572907401E-03       4    7    1        -0.3954174182E-01      0.9668066025E-01
          0                 6           1             4    7     1       0.5955630913E-04       4    7    1         0.3197049848E-02      0.7815347887E-02

    ------------------------------------------------
       NWT REQUIRED            6 OUTER ITERATIONS 
       AND A TOTAL OF         11 INNER ITERATIONS.
    ------------------------------------------------

 NO OUTPUT CONTROL FOR STRESS PERIOD    8   TIME STEP    3
 
 SOLVING FOR HEAD 
                                                   Max.-Head-Change                         Max.-Flux-Residual
  Residual-Control   Outer-Iter.   Inner-Iter.     Column Row Layer    Maximum-Head-Change  Column Row Layer    Maximum-Flux-Residual          L2-NORM 
          0                 1           2             4    7     1      -0.1628714292E+00       4    7    1        -0.8530911717E+01      0.1914566084E+02
          0                 2           2             5    8     1      -0.3055226533E-02       5    8    1        -0.1695732828E+00      0.4504073556E+00
          0                 3           2             4    7     1      -0.6114608992E-01       4    7    1        -0.3192791089E+01      0.7799874661E+01
          0                 4           2             4    7     1      -0.2740375415E-02       5    8    1        -0.1444083507E+00      0.3524020125E+00
          0                 5           2             4    7     1      -0.7571190290E-03       4    7    1        -0.3953310562E-01      0.9662931765E-01
          0                 6           1             4    7     1       0.5953956191E-04       4    7    1         0.3196186563E-02      0.7810215469E-02

    ------------------------------------------------
       NWT REQUIRED            6 OUTER ITERATIONS 
       AND A TOTAL OF         11 INNER ITERATIONS.
    ------------------------------------------------

 NO OUTPUT CONTROL FOR STRESS PERIOD    8   TIME STEP    4
 
 SOLVING FOR HEAD 
                                                   Max.-Head-Change                         Max.-Flux-Residual
  Residual-Control   Outer-Iter.   Inner-Iter.     Column Row Layer    Maximum-Head-Change  Column Row Layer    Maximum-Flux-Residual          L2-NORM 
          0                 1           2             4    7     1      -0.1610673612E+00       4    7    1        -0.8440488855E+01      0.1872766980E+02
          0                 2           2             5    8     1      -0.3584647989E-02       5    8    1        -0.1986659074E+00      0.5096495449E+00
          0                 3           2             4    7     1      -0.6112824495E-01       4    7    1        -0.3191888004E+01      0.7794886214E+01
          0                 4           2             4    7     1      -0.2742189428E-02       5    8    1        -0.1446964540E+00      0.3528979604E+00
          0                 5           2             4    7     1      -0.7569410531E-03       4    7    1        -0.3952409882E-01      0.9657969099E-01
          0                 6           1             4    7     1       0.5952220270E-04       4    7    1         0.3195286215E-02      0.7805254504E-02

    ------------------------------------------------
       NWT REQUIRED            6 OUTER ITERATIONS 
       AND A TOTAL OF         11 INNER ITERATIONS.
    ------------------------------------------------

 OUTPUT CONTROL FOR STRESS PERIOD    8   TIME STEP    5
    PRINT BUDGET
    SAVE BUDGET
 UBDSV1 SAVING "         STORAGE" ON UNIT 102 AT TIME STEP  5, STRESS PERIOD   8
 UBDSV2 SAVING "   CONSTANT HEAD" ON UNIT 102 AT TIME STEP  5, STRESS PERIOD   8
 UBDSV1 SAVING "FLOW RIGHT FACE " ON UNIT 102 AT TIME STEP  5, STRESS PERIOD   8
 UBDSV1 SAVING "FLOW FRONT FACE " ON UNIT 102 AT TIME STEP  5, STRESS PERIOD   8

  HEAD DEP BOUNDS   PERIOD    8   STEP     5
 BOUNDARY      1   LAYER   1   ROW    13   COL     1   RATE   -0.299426    
 BOUNDARY      2   LAYER   1   ROW    14   COL     9   RATE    0.285483    



 STREAM LISTING     PERIOD      8   STEP        5

 LAYER ROW COL. STREAM  RCH.  FLOW INTO     FLOW TO   FLOW OUT OF   OVRLND.     DIRECT     STREAM       STREAM     STREAM     STREAM   STREAMBED  STREAMBED
                SEG.NO.  NO.  STRM. RCH.    AQUIFER    STRM. RCH.    RUNOFF     PRECIP       ET          HEAD       DEPTH      WIDTH   CONDCTNC.   GRADIENT

   1    1    1     1     1    7.5000E+01  4.2232E-01   7.4578E+01  0.000E+00  0.000E+00  0.000E+00  1.09475E+03  1.698E+00  1.998E+01  8.990E-02  1.566E+00
   1    2    2     1     2    7.4578E+01  6.5422E-01   7.3924E+01  0.000E+00  0.000E+00  0.000E+00  1.08975E+03  1.692E+00  1.992E+01  1.394E-01  1.564E+00
   1    3    3     1     3    7.3924E+01  5.5813E-01   7.3366E+01  0.000E+00  0.000E+00  0.000E+00  1.08410E+03  1.685E+00  1.985E+01  1.191E-01  1.562E+00
   1    3    4     1     4    7.3366E+01  5.1412E-01   7.2852E+01  0.000E+00  0.000E+00  0.000E+00  1.07909E+03  1.679E+00  1.980E+01  1.099E-01  1.560E+00
   1    4    5     2     1    7.0852E+01  4.0967E-01   7.0442E+01  0.000E+00  0.000E+00  0.000E+00  1.07419E+03  2.252E+00  1.200E+01  7.800E-02  1.751E+00
   1    5    6     2     2    7.0442E+01  3.1471E-01   7.0127E+01  0.000E+00  0.000E+00  0.000E+00  1.06875E+03  2.245E+00  1.200E+01  6.000E-02  1.748E+00
   1    6    6     2     3    7.0127E+01  3.1435E-01   6.9813E+01  0.000E+00  0.000E+00  0.000E+00  1.06403E+03  2.239E+00  1.200E+01  6.000E-02  1.746E+00
   1    7    6     2     4    6.9813E+01  3.1399E-01   6.9499E+01  0.000E+00  0.000E+00  0.000E+00  1.05931E+03  2.233E+00  1.200E+01  6.000E-02  1.744E+00
   1    8    6     2     5    6.9499E+01  3.1363E-01   6.9185E+01  0.000E+00  0.000E+00  0.000E+00  1.05459E+03  2.227E+00  1.200E+01  6.000E-02  1.742E+00
   1    3    5     3     1    2.0000E+00  2.8252E-01   1.7175E+00  0.000E+00  0.000E+00  0.000E+00  1.07555E+03  1.909E+00  9.636E+00  7.227E-02  1.955E+00
   1    3    6     3     2    1.7175E+00  2.4905E-01   1.4684E+00  0.000E+00  0.000E+00  0.000E+00  1.07264E+03  1.727E+00  8.909E+00  6.682E-02  1.864E+00
   1    3    7     3     3    1.4684E+00  1.9718E-01   1.2712E+00  0.000E+00  0.000E+00  0.000E+00  1.06987E+03  1.555E+00  8.218E+00  5.547E-02  1.777E+00
   1    4    8     3     4    1.2712E+00  2.2567E-01   1.0456E+00  0.000E+00  0.000E+00  0.000E+00  1.06682E+03  1.364E+00  7.455E+00  6.709E-02  1.682E+00
   1    5    8     3     5    1.0456E+00  1.5790E-01   8.8768E-01  0.000E+00  0.000E+00  0.000E+00  1.06362E+03  1.164E+00  6.655E+00  4.991E-02  1.582E+00
   1    6    8     3     6    8.8768E-01  5.5980E-02   8.3170E-01  0.000E+00  0.000E+00  0.000E+00  1.06158E+03  1.036E+00  6.145E+00  1.844E-02  1.518E+00
   1    5   10     4     1    1.0000E+01  9.0919E-02   9.9091E+00  0.000E+00  0.000E+00  0.000E+00  1.07836E+03  6.368E-01  1.000E+01  2.500E-02  1.212E+00
   1    5    9     4     2    9.9091E+00  1.8158E-01   9.7275E+00  0.000E+00  0.000E+00  0.000E+00  1.07154E+03  6.315E-01  1.000E+01  5.000E-02  1.211E+00
   1    6    8     4     3    9.7275E+00  1.2689E-01   9.6006E+00  0.000E+00  0.000E+00  0.000E+00  1.06381E+03  6.256E-01  1.000E+01  3.500E-02  1.209E+00
   1    6    8     5     1    1.0432E+01  2.2686E-01   1.0205E+01  0.000E+00  0.000E+00  0.000E+00  1.05868E+03  6.790E-01  1.542E+01  6.166E-02  1.226E+00
   1    7    7     5     2    1.0205E+01  2.7894E-01   9.9265E+00  0.000E+00  0.000E+00  0.000E+00  1.05417E+03  6.732E-01  1.519E+01  7.594E-02  1.224E+00
   1    8    7     5     3    9.9265E+00  1.9221E-01   9.7343E+00  0.000E+00  0.000E+00  0.000E+00  1.04992E+03  6.676E-01  1.497E+01  5.241E-02  1.223E+00
   1    8    6     5     4    9.7343E+00  1.3577E-01   9.5985E+00  0.000E+00  0.000E+00  0.000E+00  1.04691E+03  6.637E-01  1.482E+01  3.706E-02  1.221E+00
   1    9    6     6     1    7.8784E+01  3.2569E-01   7.8458E+01  0.000E+00  0.000E+00  0.000E+00  1.04516E+03  2.428E+00  1.200E+01  6.000E-02  1.809E+00
   1   10    7     6     2    7.8458E+01  3.2533E-01   7.8133E+01  0.000E+00  0.000E+00  0.000E+00  1.04060E+03  2.422E+00  1.200E+01  6.000E-02  1.807E+00
   1   11    7     6     3    7.8133E+01  3.2497E-01   7.7808E+01  0.000E+00  0.000E+00  0.000E+00  1.03605E+03  2.416E+00  1.200E+01  6.000E-02  1.805E+00
   1   12    7     6     4    7.7808E+01  3.2461E-01   7.7483E+01  0.000E+00  0.000E+00  0.000E+00  1.03150E+03  2.410E+00  1.200E+01  6.000E-02  1.803E+00
   1   13    7     6     5    7.7483E+01  2.5951E-02   7.7457E+01  0.000E+00  0.000E+00  0.000E+00  1.02832E+03  2.407E+00  1.200E+01  2.400E-02  3.604E-01
   1   14    9     7     1    1.5000E+02  1.3318E+00   1.4867E+02  0.000E+00  0.000E+00  0.000E+00  1.03987E+03  2.288E+00  5.529E+01  5.593E-01  7.937E-01
   1   13    8     7     2    1.4867E+02  1.8017E+00   1.4687E+02  0.000E+00  0.000E+00  0.000E+00  1.03478E+03  2.279E+00  5.526E+01  6.148E-01  9.769E-01
   1   13    7     7     3    1.4687E+02  1.3714E+00   1.4550E+02  0.000E+00  0.000E+00  0.000E+00  1.02969E+03  2.271E+00  5.522E+01  5.585E-01  8.185E-01
   1   13    6     8     1    2.2295E+02  1.0172E+00   2.2194E+02  0.000E+00  0.000E+00  0.000E+00  1.02514E+03  3.265E+00  4.735E+01  4.825E-01  7.028E-01
   1   13    5     8     2    2.2194E+02  1.9833E-01   2.2174E+02  0.000E+00  0.000E+00  0.000E+00  1.01889E+03  3.262E+00  4.730E+01  4.820E-01  1.372E-01
   1   13    4     8     3    2.2174E+02 -1.9497E+00   2.2369E+02  0.000E+00  0.000E+00  0.000E+00  1.01264E+03  3.267E+00  4.737E+01  4.827E+00 -1.346E-01
   1   13    3     8     4    2.2369E+02 -3.1042E+00   2.2679E+02  0.000E+00  0.000E+00  0.000E+00  1.00641E+03  3.281E+00  4.757E+01  4.848E+00 -2.135E-01
   1   13    2     8     5    2.2679E+02 -2.6097E+00   2.2940E+02  0.000E+00  0.000E+00  0.000E+00  1.00017E+03  3.296E+00  4.780E+01  4.871E+00 -1.786E-01
   1   13    1     8     6    2.2940E+02 -2.0412E+00   2.3144E+02  0.000E+00  0.000E+00  0.000E+00  9.95184E+02  3.309E+00  4.798E+01  2.933E+00 -2.319E-01



 UBDSV3 SAVING "           GW ET" ON UNIT  61 AT TIME STEP  5, STRESS PERIOD   8
 UBDSV3 SAVING "    UZF RECHARGE" ON UNIT  61 AT TIME STEP  5, STRESS PERIOD   8
 UBDSV3 SAVING " SURFACE LEAKAGE" ON UNIT  61 AT TIME STEP  5, STRESS PERIOD   8
 UBDSV3 SAVING "       HORT+DUNN" ON UNIT  61 AT TIME STEP  5, STRESS PERIOD   8
 UBDSV3 SAVING "  STORAGE CHANGE" ON UNIT  61 AT TIME STEP  5, STRESS PERIOD   8


UNSATURATED ZONE PACKAGE VOLUMETRIC BUDGET FOR  TIME STEP     5 STRESS PERIOD    8
  ------------------------------------------------------------------------------



     CUMULATIVE VOLUMES      L**3       RATES FOR THIS TIME STEP      L**3/T
     ------------------                 ------------------------

           IN:                                      IN:
           ---                                      ---
        INFILTRATION =   140696044.9143          INFILTRATION =          88.3416

          OUT:                                     OUT:
          ----                                     ----
              UZF ET =   128557099.1024                UZF ET =          60.8175
        UZF RECHARGE =       73224.0000          UZF RECHARGE =       0.0000E+00

            IN - OUT =    12065721.8120              IN - OUT =          27.5241

          STORAGE:                                 STORAGE:
          --------                                 --------
      STORAGE CHANGE =    12065722.8420        STORAGE CHANGE =          27.5241

 PERCENT DISCREPANCY IS DIFFERENCE BETWEEN IN-OUT MINUS CHANGE IN STORAGE
 DIVIDED BY THE AVERAGE OF IN AND OUT TIMES 100

 PERCENT DISCREPANCY =           0.00     PERCENT DISCREPANCY =          -0.00






 

            AG WELLS      PERIOD    8   STEP   5
 AG WELL      1   LAYER   1   ROW     6   COL     4   RATE    -14.5824    
 AG WELL      2   LAYER   1   ROW     6   COL     5   RATE    -14.5824    
 AG WELL      3   LAYER   1   ROW     7   COL     4   RATE    -14.5824    
 AG WELL      4   LAYER   1   ROW     7   COL     5   RATE    -14.5824    
 AG WELL      5   LAYER   1   ROW     8   COL     4   RATE    -14.5824    
 AG WELL      6   LAYER   1   ROW     8   COL     5   RATE    -14.5824    
 
 

        GW IRRIGATION     PERIOD    8   STEP   5
 AG WELL      1   ROW     6   COL     4   RATE     14.5824    
 AG WELL      2   ROW     6   COL     5   RATE     14.5824    
 AG WELL      3   ROW     7   COL     4   RATE     14.5824    
 AG WELL      4   ROW     7   COL     5   RATE     14.5824    
 AG WELL      5   ROW     8   COL     4   RATE     14.5824    
 AG WELL      6   ROW     8   COL     5   RATE     14.5824    
 
1
  VOLUMETRIC BUDGET FOR AGRICULTURAL FIELDS AT  END OF TIME STEP    5, STRESS PERIOD   8
  ------------------------------------------------------------------------------

     CUMULATIVE VOLUMES      L**3       RATES FOR THIS TIME STEP      L**3/T
     ------------------                 ------------------------

           IN:                                      IN:
           ---                                      ---
               AG WELLS  =   126877832.0000                 AG WELLS  =          87.4941
      DIVERSION SEGMENTS =           0.0000        DIVERSION SEGMENTS =           0.0000
           GW IRRIGATION =           0.0000             GW IRRIGATION =           0.0000
           SW IRRIGATION =           0.0000             SW IRRIGATION =           0.0000
        SYSTEM LOSSES GW =           0.0000          SYSTEM LOSSES GW =           0.0000
        SYSTEM LOSSES SW =           0.0000          SYSTEM LOSSES SW =           0.0000

                TOTAL IN =   126877832.0000                  TOTAL IN =          87.4941

          OUT:                                     OUT:
          ----                                     ----
               AG WELLS  =           0.0000                 AG WELLS  =           0.0000
      DIVERSION SEGMENTS =           0.0000        DIVERSION SEGMENTS =           0.0000
           GW IRRIGATION =   126877832.0000             GW IRRIGATION =          87.4941
           SW IRRIGATION =           0.0000             SW IRRIGATION =           0.0000
        SYSTEM LOSSES GW =           0.0000          SYSTEM LOSSES GW =           0.0000
        SYSTEM LOSSES SW =           0.0000          SYSTEM LOSSES SW =           0.0000

               TOTAL OUT =   126877832.0000                 TOTAL OUT =          87.4941

                IN - OUT =           0.0000                  IN - OUT =           0.0000

     PERCENT DISCREPANCY =           0.00         PERCENT DISCREPANCY =           0.00



1
  VOLUMETRIC BUDGET FOR ENTIRE MODEL AT END OF TIME STEP    5, STRESS PERIOD   8
  ------------------------------------------------------------------------------

     CUMULATIVE VOLUMES      L**3       RATES FOR THIS TIME STEP      L**3/T
     ------------------                 ------------------------

           IN:                                      IN:
           ---                                      ---
             STORAGE     =   132904488.0000               STORAGE     =          87.2343
       CONSTANT HEAD     =           0.0000         CONSTANT HEAD     =           0.0000
     HEAD DEP BOUNDS     =     4654242.0000       HEAD DEP BOUNDS     =           0.2855
      STREAM LEAKAGE     =   208018544.0000        STREAM LEAKAGE     =          13.2635
        UZF RECHARGE     =       73223.9531          UZF RECHARGE     =           0.0000
               GW ET     =           0.0000                 GW ET     =           0.0000
     SURFACE LEAKAGE     =           0.0000       SURFACE LEAKAGE     =           0.0000
           AG WELLS      =           0.0000             AG WELLS      =           0.0000

                TOTAL IN =   345650496.0000                  TOTAL IN =         100.7833

          OUT:                                     OUT:
          ----                                     ----
             STORAGE     =    42410512.0000               STORAGE     =           1.4503
       CONSTANT HEAD     =           0.0000         CONSTANT HEAD     =           0.0000
     HEAD DEP BOUNDS     =     4805403.5000       HEAD DEP BOUNDS     =           0.2994
      STREAM LEAKAGE     =   164655696.0000        STREAM LEAKAGE     =           9.7047
        UZF RECHARGE     =           0.0000          UZF RECHARGE     =           0.0000
               GW ET     =     6904298.0000                 GW ET     =           1.8361
     SURFACE LEAKAGE     =           0.0000       SURFACE LEAKAGE     =           0.0000
           AG WELLS      =   126877832.0000             AG WELLS      =          87.4941

               TOTAL OUT =   345653760.0000                 TOTAL OUT =         100.7846

                IN - OUT =       -3264.0000                  IN - OUT =      -1.3123E-03

     PERCENT DISCREPANCY =          -0.00         PERCENT DISCREPANCY =          -0.00






         TIME SUMMARY AT END OF TIME STEP    5 IN STRESS PERIOD    8
                    SECONDS     MINUTES      HOURS       DAYS        YEARS
                    -----------------------------------------------------------
   TIME STEP LENGTH  87667.      1461.1      24.352      1.0147     2.77799E-03
 STRESS PERIOD TIME 4.38333E+05  7305.6      121.76      5.0733     1.38899E-02
         TOTAL TIME 1.63048E+07 2.71746E+05  4529.1      188.71     0.51667    
1
 
 SOLVING FOR HEAD 
                                                   Max.-Head-Change                         Max.-Flux-Residual
  Residual-Control   Outer-Iter.   Inner-Iter.     Column Row Layer    Maximum-Head-Change  Column Row Layer    Maximum-Flux-Residual          L2-NORM 
          0                 1           2             4    7     1      -0.1592065074E+00       4    7    1        -0.8346759310E+01      0.1833531698E+02
          0                 2           2             5    8     1      -0.4085751462E-02       5    8    1        -0.2261767001E+00      0.5677510018E+00
          0                 3           2             4    7     1      -0.6110984157E-01       4    7    1        -0.3190951846E+01      0.7790063873E+01
          0                 4           2             4    7     1      -0.2744060633E-02       5    8    1        -0.1449689382E+00      0.3533776753E+00
          0                 5           2             4    7     1      -0.7567575168E-03       4    7    1        -0.3951476085E-01      0.9653170025E-01
          0                 6           1             4    7     1       0.5950430058E-04       4    7    1         0.3194352745E-02      0.7800456930E-02

    ------------------------------------------------
       NWT REQUIRED            6 OUTER ITERATIONS 
       AND A TOTAL OF         11 INNER ITERATIONS.
    ------------------------------------------------

 NO OUTPUT CONTROL FOR STRESS PERIOD    8   TIME STEP    6
 
 SOLVING FOR HEAD 
                                                   Max.-Head-Change                         Max.-Flux-Residual
  Residual-Control   Outer-Iter.   Inner-Iter.     Column Row Layer    Maximum-Head-Change  Column Row Layer    Maximum-Flux-Residual          L2-NORM 
          0                 1           2             4    7     1      -0.1572951709E+00       4    7    1        -0.8250071597E+01      0.1796578508E+02
          0                 2           2             5    8     1      -0.4560507579E-02       5    8    1        -0.2522167852E+00      0.6240140671E+00
          0                 3           2             4    7     1      -0.6109094201E-01       4    7    1        -0.3189986096E+01      0.7785399626E+01
          0                 4           2             4    7     1      -0.2745982691E-02       5    8    1        -0.1452268998E+00      0.3538418847E+00
          0                 5           2             4    7     1      -0.7565690404E-03       4    7    1        -0.3950512651E-01      0.9648526886E-01
          0                 6           1             4    7     1       0.5948591602E-04       4    7    1         0.3193389630E-02      0.7795815501E-02

    ------------------------------------------------
       NWT REQUIRED            6 OUTER ITERATIONS 
       AND A TOTAL OF         11 INNER ITERATIONS.
    ------------------------------------------------

 NO OUTPUT CONTROL FOR STRESS PERIOD    8   TIME STEP    7
 
 SOLVING FOR HEAD 
                                                   Max.-Head-Change                         Max.-Flux-Residual
  Residual-Control   Outer-Iter.   Inner-Iter.     Column Row Layer    Maximum-Head-Change  Column Row Layer    Maximum-Flux-Residual          L2-NORM 
          0                 1           2             4    7     1      -0.1553393785E+00       4    7    1        -0.8150759868E+01      0.1761698583E+02
          0                 2           2             5    8     1      -0.5010719218E-02       5    8    1        -0.2768875522E+00      0.6780980711E+00
          0                 3           2             4    7     1      -0.6107160572E-01       4    7    1        -0.3188994096E+01      0.7780885868E+01
          0                 4           2             4    7     1      -0.2747949562E-02       5    8    1        -0.1454713389E+00      0.3542913037E+00
          0                 5           2             4    7     1      -0.7563762160E-03       4    7    1        -0.3949522918E-01      0.9644032242E-01
          0                 6           1             4    7     1       0.5946710643E-04       4    7    1         0.3192400194E-02      0.7791322114E-02

    ------------------------------------------------
       NWT REQUIRED            6 OUTER ITERATIONS 
       AND A TOTAL OF         11 INNER ITERATIONS.
    ------------------------------------------------

 NO OUTPUT CONTROL FOR STRESS PERIOD    8   TIME STEP    8
 
 SOLVING FOR HEAD 
                                                   Max.-Head-Change                         Max.-Flux-Residual
  Residual-Control   Outer-Iter.   Inner-Iter.     Column Row Layer    Maximum-Head-Change  Column Row Layer    Maximum-Flux-Residual          L2-NORM 
          0                 1           2             4    7     1      -0.1533450513E+00       4    7    1        -0.8049151349E+01      0.1728729915E+02
          0                 2           2             5    8     1      -0.5438028941E-02       5    8    1        -0.3002822646E+00      0.7303410104E+00
          0                 3           2             4    7     1      -0.6105189145E-01       4    7    1        -0.3187979117E+01      0.7776516144E+01
          0                 4           2             4    7     1      -0.2749955240E-02       5    8    1        -0.1457031736E+00      0.3547265081E+00
          0                 5           2             4    7     1      -0.7561796292E-03       4    7    1        -0.3948510156E-01      0.9639680157E-01
          0                 6           1             4    7     1       0.5944792959E-04       4    7    1         0.3191387741E-02      0.7786971242E-02

    ------------------------------------------------
       NWT REQUIRED            6 OUTER ITERATIONS 
       AND A TOTAL OF         11 INNER ITERATIONS.
    ------------------------------------------------

 NO OUTPUT CONTROL FOR STRESS PERIOD    8   TIME STEP    9
 
 SOLVING FOR HEAD 
                                                   Max.-Head-Change                         Max.-Flux-Residual
  Residual-Control   Outer-Iter.   Inner-Iter.     Column Row Layer    Maximum-Head-Change  Column Row Layer    Maximum-Flux-Residual          L2-NORM 
          0                 1           2             4    7     1      -0.1513171605E+00       4    7    1        -0.7945523373E+01      0.1697527295E+02
          0                 2           2             5    8     1      -0.5843973490E-02       5    8    1        -0.3224867341E+00      0.7804256344E+00
          0                 3           2             4    7     1      -0.6103184791E-01       4    7    1        -0.3186943929E+01      0.7772283379E+01
          0                 4           2             4    7     1      -0.2751994775E-02       5    8    1        -0.1459232526E+00      0.3551482121E+00
          0                 5           2             4    7     1      -0.7559797655E-03       4    7    1        -0.3947477139E-01      0.9635463392E-01
          0                 6           1             4    7     1       0.5942843198E-04       4    7    1         0.3190354998E-02      0.7782755615E-02

    ------------------------------------------------
       NWT REQUIRED            6 OUTER ITERATIONS 
       AND A TOTAL OF         11 INNER ITERATIONS.
    ------------------------------------------------

 OUTPUT CONTROL FOR STRESS PERIOD    8   TIME STEP   10
    PRINT BUDGET
    SAVE BUDGET
 UBDSV1 SAVING "         STORAGE" ON UNIT 102 AT TIME STEP 10, STRESS PERIOD   8
 UBDSV2 SAVING "   CONSTANT HEAD" ON UNIT 102 AT TIME STEP 10, STRESS PERIOD   8
 UBDSV1 SAVING "FLOW RIGHT FACE " ON UNIT 102 AT TIME STEP 10, STRESS PERIOD   8
 UBDSV1 SAVING "FLOW FRONT FACE " ON UNIT 102 AT TIME STEP 10, STRESS PERIOD   8

  HEAD DEP BOUNDS   PERIOD    8   STEP    10
 BOUNDARY      1   LAYER   1   ROW    13   COL     1   RATE   -0.299185    
 BOUNDARY      2   LAYER   1   ROW    14   COL     9   RATE    0.285481    



 STREAM LISTING     PERIOD      8   STEP       10

 LAYER ROW COL. STREAM  RCH.  FLOW INTO     FLOW TO   FLOW OUT OF   OVRLND.     DIRECT     STREAM       STREAM     STREAM     STREAM   STREAMBED  STREAMBED
                SEG.NO.  NO.  STRM. RCH.    AQUIFER    STRM. RCH.    RUNOFF     PRECIP       ET          HEAD       DEPTH      WIDTH   CONDCTNC.   GRADIENT

   1    1    1     1     1    7.5000E+01  4.2232E-01   7.4578E+01  0.000E+00  0.000E+00  0.000E+00  1.09475E+03  1.698E+00  1.998E+01  8.990E-02  1.566E+00
   1    2    2     1     2    7.4578E+01  6.5422E-01   7.3924E+01  0.000E+00  0.000E+00  0.000E+00  1.08975E+03  1.692E+00  1.992E+01  1.394E-01  1.564E+00
   1    3    3     1     3    7.3924E+01  5.5813E-01   7.3366E+01  0.000E+00  0.000E+00  0.000E+00  1.08410E+03  1.685E+00  1.985E+01  1.191E-01  1.562E+00
   1    3    4     1     4    7.3366E+01  5.1412E-01   7.2852E+01  0.000E+00  0.000E+00  0.000E+00  1.07909E+03  1.679E+00  1.980E+01  1.099E-01  1.560E+00
   1    4    5     2     1    7.0852E+01  4.0967E-01   7.0442E+01  0.000E+00  0.000E+00  0.000E+00  1.07419E+03  2.252E+00  1.200E+01  7.800E-02  1.751E+00
   1    5    6     2     2    7.0442E+01  3.1471E-01   7.0127E+01  0.000E+00  0.000E+00  0.000E+00  1.06875E+03  2.245E+00  1.200E+01  6.000E-02  1.748E+00
   1    6    6     2     3    7.0127E+01  3.1435E-01   6.9813E+01  0.000E+00  0.000E+00  0.000E+00  1.06403E+03  2.239E+00  1.200E+01  6.000E-02  1.746E+00
   1    7    6     2     4    6.9813E+01  3.1399E-01   6.9499E+01  0.000E+00  0.000E+00  0.000E+00  1.05931E+03  2.233E+00  1.200E+01  6.000E-02  1.744E+00
   1    8    6     2     5    6.9499E+01  3.1363E-01   6.9185E+01  0.000E+00  0.000E+00  0.000E+00  1.05459E+03  2.227E+00  1.200E+01  6.000E-02  1.742E+00
   1    3    5     3     1    2.0000E+00  2.8252E-01   1.7175E+00  0.000E+00  0.000E+00  0.000E+00  1.07555E+03  1.909E+00  9.636E+00  7.227E-02  1.955E+00
   1    3    6     3     2    1.7175E+00  2.4905E-01   1.4684E+00  0.000E+00  0.000E+00  0.000E+00  1.07264E+03  1.727E+00  8.909E+00  6.682E-02  1.864E+00
   1    3    7     3     3    1.4684E+00  1.9718E-01   1.2712E+00  0.000E+00  0.000E+00  0.000E+00  1.06987E+03  1.555E+00  8.218E+00  5.547E-02  1.777E+00
   1    4    8     3     4    1.2712E+00  2.2567E-01   1.0456E+00  0.000E+00  0.000E+00  0.000E+00  1.06682E+03  1.364E+00  7.455E+00  6.709E-02  1.682E+00
   1    5    8     3     5    1.0456E+00  1.5790E-01   8.8768E-01  0.000E+00  0.000E+00  0.000E+00  1.06362E+03  1.164E+00  6.655E+00  4.991E-02  1.582E+00
   1    6    8     3     6    8.8768E-01  5.5980E-02   8.3170E-01  0.000E+00  0.000E+00  0.000E+00  1.06158E+03  1.036E+00  6.145E+00  1.844E-02  1.518E+00
   1    5   10     4     1    1.0000E+01  9.0919E-02   9.9091E+00  0.000E+00  0.000E+00  0.000E+00  1.07836E+03  6.368E-01  1.000E+01  2.500E-02  1.212E+00
   1    5    9     4     2    9.9091E+00  1.8158E-01   9.7275E+00  0.000E+00  0.000E+00  0.000E+00  1.07154E+03  6.315E-01  1.000E+01  5.000E-02  1.211E+00
   1    6    8     4     3    9.7275E+00  1.2689E-01   9.6006E+00  0.000E+00  0.000E+00  0.000E+00  1.06381E+03  6.256E-01  1.000E+01  3.500E-02  1.209E+00
   1    6    8     5     1    1.0432E+01  2.2686E-01   1.0205E+01  0.000E+00  0.000E+00  0.000E+00  1.05868E+03  6.790E-01  1.542E+01  6.166E-02  1.226E+00
   1    7    7     5     2    1.0205E+01  2.7894E-01   9.9265E+00  0.000E+00  0.000E+00  0.000E+00  1.05417E+03  6.732E-01  1.519E+01  7.594E-02  1.224E+00
   1    8    7     5     3    9.9265E+00  1.9221E-01   9.7343E+00  0.000E+00  0.000E+00  0.000E+00  1.04992E+03  6.676E-01  1.497E+01  5.241E-02  1.223E+00
   1    8    6     5     4    9.7343E+00  1.3577E-01   9.5985E+00  0.000E+00  0.000E+00  0.000E+00  1.04691E+03  6.637E-01  1.482E+01  3.706E-02  1.221E+00
   1    9    6     6     1    7.8784E+01  3.2569E-01   7.8458E+01  0.000E+00  0.000E+00  0.000E+00  1.04516E+03  2.428E+00  1.200E+01  6.000E-02  1.809E+00
   1   10    7     6     2    7.8458E+01  3.2533E-01   7.8133E+01  0.000E+00  0.000E+00  0.000E+00  1.04060E+03  2.422E+00  1.200E+01  6.000E-02  1.807E+00
   1   11    7     6     3    7.8133E+01  3.2497E-01   7.7808E+01  0.000E+00  0.000E+00  0.000E+00  1.03605E+03  2.416E+00  1.200E+01  6.000E-02  1.805E+00
   1   12    7     6     4    7.7808E+01  3.2461E-01   7.7483E+01  0.000E+00  0.000E+00  0.000E+00  1.03150E+03  2.410E+00  1.200E+01  6.000E-02  1.803E+00
   1   13    7     6     5    7.7483E+01  2.5897E-02   7.7457E+01  0.000E+00  0.000E+00  0.000E+00  1.02832E+03  2.407E+00  1.200E+01  2.400E-02  3.597E-01
   1   14    9     7     1    1.5000E+02  1.3317E+00   1.4867E+02  0.000E+00  0.000E+00  0.000E+00  1.03987E+03  2.288E+00  5.529E+01  5.593E-01  7.937E-01
   1   13    8     7     2    1.4867E+02  1.8009E+00   1.4687E+02  0.000E+00  0.000E+00  0.000E+00  1.03478E+03  2.279E+00  5.526E+01  6.148E-01  9.765E-01
   1   13    7     7     3    1.4687E+02  1.3702E+00   1.4550E+02  0.000E+00  0.000E+00  0.000E+00  1.02969E+03  2.271E+00  5.522E+01  5.585E-01  8.178E-01
   1   13    6     8     1    2.2295E+02  1.0170E+00   2.2194E+02  0.000E+00  0.000E+00  0.000E+00  1.02514E+03  3.265E+00  4.735E+01  4.825E-01  7.026E-01
   1   13    5     8     2    2.2194E+02  1.9942E-01   2.2174E+02  0.000E+00  0.000E+00  0.000E+00  1.01889E+03  3.262E+00  4.730E+01  4.820E-01  1.379E-01
   1   13    4     8     3    2.2174E+02 -1.9212E+00   2.2366E+02  0.000E+00  0.000E+00  0.000E+00  1.01264E+03  3.267E+00  4.737E+01  4.827E+00 -1.327E-01
   1   13    3     8     4    2.2366E+02 -3.0746E+00   2.2673E+02  0.000E+00  0.000E+00  0.000E+00  1.00641E+03  3.280E+00  4.757E+01  4.847E+00 -2.114E-01
   1   13    2     8     5    2.2673E+02 -2.5694E+00   2.2930E+02  0.000E+00  0.000E+00  0.000E+00  1.00017E+03  3.296E+00  4.779E+01  4.870E+00 -1.759E-01
   1   13    1     8     6    2.2930E+02 -2.0238E+00   2.3133E+02  0.000E+00  0.000E+00  0.000E+00  9.95183E+02  3.308E+00  4.797E+01  2.933E+00 -2.300E-01



 UBDSV3 SAVING "           GW ET" ON UNIT  61 AT TIME STEP 10, STRESS PERIOD   8
 UBDSV3 SAVING "    UZF RECHARGE" ON UNIT  61 AT TIME STEP 10, STRESS PERIOD   8
 UBDSV3 SAVING " SURFACE LEAKAGE" ON UNIT  61 AT TIME STEP 10, STRESS PERIOD   8
 UBDSV3 SAVING "       HORT+DUNN" ON UNIT  61 AT TIME STEP 10, STRESS PERIOD   8
 UBDSV3 SAVING "  STORAGE CHANGE" ON UNIT  61 AT TIME STEP 10, STRESS PERIOD   8


UNSATURATED ZONE PACKAGE VOLUMETRIC BUDGET FOR  TIME STEP    10 STRESS PERIOD    8
  ------------------------------------------------------------------------------



     CUMULATIVE VOLUMES      L**3       RATES FOR THIS TIME STEP      L**3/T
     ------------------                 ------------------------

           IN:                                      IN:
           ---                                      ---
        INFILTRATION =   179419128.6437          INFILTRATION =          88.3416

          OUT:                                     OUT:
          ----                                     ----
              UZF ET =   155215435.3318                UZF ET =          60.8175
        UZF RECHARGE =       73224.0000          UZF RECHARGE =       0.0000E+00

            IN - OUT =    24130469.3120              IN - OUT =          27.5241

          STORAGE:                                 STORAGE:
          --------                                 --------
      STORAGE CHANGE =    24130471.3492        STORAGE CHANGE =          27.5241

 PERCENT DISCREPANCY IS DIFFERENCE BETWEEN IN-OUT MINUS CHANGE IN STORAGE
 DIVIDED BY THE AVERAGE OF IN AND OUT TIMES 100

 PERCENT DISCREPANCY =           0.00     PERCENT DISCREPANCY =          -0.00






 

            AG WELLS      PERIOD    8   STEP  10
 AG WELL      1   LAYER   1   ROW     6   COL     4   RATE    -14.5824    
 AG WELL      2   LAYER   1   ROW     6   COL     5   RATE    -14.5824    
 AG WELL      3   LAYER   1   ROW     7   COL     4   RATE    -14.5824    
 AG WELL      4   LAYER   1   ROW     7   COL     5   RATE    -14.5824    
 AG WELL      5   LAYER   1   ROW     8   COL     4   RATE    -14.5824    
 AG WELL      6   LAYER   1   ROW     8   COL     5   RATE    -14.5824    
 
 

        GW IRRIGATION     PERIOD    8   STEP  10
 AG WELL      1   ROW     6   COL     4   RATE     14.5824    
 AG WELL      2   ROW     6   COL     5   RATE     14.5824    
 AG WELL      3   ROW     7   COL     4   RATE     14.5824    
 AG WELL      4   ROW     7   COL     5   RATE     14.5824    
 AG WELL      5   ROW     8   COL     4   RATE     14.5824    
 AG WELL      6   ROW     8   COL     5   RATE     14.5824    
 
1
  VOLUMETRIC BUDGET FOR AGRICULTURAL FIELDS AT  END OF TIME STEP   10, STRESS PERIOD   8
  ------------------------------------------------------------------------------

     CUMULATIVE VOLUMES      L**3       RATES FOR THIS TIME STEP      L**3/T
     ------------------                 ------------------------

           IN:                                      IN:
           ---                                      ---
               AG WELLS  =   165229424.0000                 AG WELLS  =          87.4941
      DIVERSION SEGMENTS =           0.0000        DIVERSION SEGMENTS =           0.0000
           GW IRRIGATION =           0.0000             GW IRRIGATION =           0.0000
           SW IRRIGATION =           0.0000             SW IRRIGATION =           0.0000
        SYSTEM LOSSES GW =           0.0000          SYSTEM LOSSES GW =           0.0000
        SYSTEM LOSSES SW =           0.0000          SYSTEM LOSSES SW =           0.0000

                TOTAL IN =   165229424.0000                  TOTAL IN =          87.4941

          OUT:                                     OUT:
          ----                                     ----
               AG WELLS  =           0.0000                 AG WELLS  =           0.0000
      DIVERSION SEGMENTS =           0.0000        DIVERSION SEGMENTS =           0.0000
           GW IRRIGATION =   165229424.0000             GW IRRIGATION =          87.4941
           SW IRRIGATION =           0.0000             SW IRRIGATION =           0.0000
        SYSTEM LOSSES GW =           0.0000          SYSTEM LOSSES GW =           0.0000
        SYSTEM LOSSES SW =           0.0000          SYSTEM LOSSES SW =           0.0000

               TOTAL OUT =   165229424.0000                 TOTAL OUT =          87.4941

                IN - OUT =           0.0000                  IN - OUT =           0.0000

     PERCENT DISCREPANCY =           0.00         PERCENT DISCREPANCY =           0.00



1
  VOLUMETRIC BUDGET FOR ENTIRE MODEL AT END OF TIME STEP   10, STRESS PERIOD   8
  ------------------------------------------------------------------------------

     CUMULATIVE VOLUMES      L**3       RATES FOR THIS TIME STEP      L**3/T
     ------------------                 ------------------------

           IN:                                      IN:
           ---                                      ---
             STORAGE     =   171009904.0000               STORAGE     =          86.8027
       CONSTANT HEAD     =           0.0000         CONSTANT HEAD     =           0.0000
     HEAD DEP BOUNDS     =     4779378.0000       HEAD DEP BOUNDS     =           0.2855
      STREAM LEAKAGE     =   213832096.0000        STREAM LEAKAGE     =          13.2624
        UZF RECHARGE     =       73223.9531          UZF RECHARGE     =           0.0000
               GW ET     =           0.0000                 GW ET     =           0.0000
     SURFACE LEAKAGE     =           0.0000       SURFACE LEAKAGE     =           0.0000
           AG WELLS      =           0.0000             AG WELLS      =           0.0000

                TOTAL IN =   389694592.0000                  TOTAL IN =         100.3506

          OUT:                                     OUT:
          ----                                     ----
             STORAGE     =    43027696.0000               STORAGE     =           1.3788
       CONSTANT HEAD     =           0.0000         CONSTANT HEAD     =           0.0000
     HEAD DEP BOUNDS     =     4936586.5000       HEAD DEP BOUNDS     =           0.2992
      STREAM LEAKAGE     =   168874960.0000        STREAM LEAKAGE     =           9.5890
        UZF RECHARGE     =           0.0000          UZF RECHARGE     =           0.0000
               GW ET     =     7629709.5000                 GW ET     =           1.5908
     SURFACE LEAKAGE     =           0.0000       SURFACE LEAKAGE     =           0.0000
           AG WELLS      =   165229424.0000             AG WELLS      =          87.4941

               TOTAL OUT =   389698368.0000                 TOTAL OUT =         100.3519

                IN - OUT =       -3776.0000                  IN - OUT =      -1.3046E-03

     PERCENT DISCREPANCY =          -0.00         PERCENT DISCREPANCY =          -0.00






         TIME SUMMARY AT END OF TIME STEP   10 IN STRESS PERIOD    8
                    SECONDS     MINUTES      HOURS       DAYS        YEARS
                    -----------------------------------------------------------
   TIME STEP LENGTH  87667.      1461.1      24.352      1.0147     2.77799E-03
 STRESS PERIOD TIME 8.76667E+05  14611.      243.52      10.147     2.77799E-02
         TOTAL TIME 1.67431E+07 2.79052E+05  4650.9      193.79     0.53056    
1
 
 SOLVING FOR HEAD 
                                                   Max.-Head-Change                         Max.-Flux-Residual
  Residual-Control   Outer-Iter.   Inner-Iter.     Column Row Layer    Maximum-Head-Change  Column Row Layer    Maximum-Flux-Residual          L2-NORM 
          0                 1           2             4    7     1      -0.1492610190E+00       4    7    1        -0.7840170623E+01      0.1667965744E+02
          0                 2           2             5    8     1      -0.6229981651E-02       5    8    1        -0.3435815745E+00      0.8285464054E+00
          0                 3           2             4    7     1      -0.6101152768E-01       4    7    1        -0.3185891479E+01      0.7768181659E+01
          0                 4           2             4    7     1      -0.2754062808E-02       5    8    1        -0.1461323706E+00      0.3555569600E+00
          0                 5           2             4    7     1      -0.7557771499E-03       4    7    1        -0.3946426812E-01      0.9631376294E-01
          0                 6           1             4    7     1       0.5940866590E-04       4    7    1         0.3189304960E-02      0.7778669568E-02

    ------------------------------------------------
       NWT REQUIRED            6 OUTER ITERATIONS 
       AND A TOTAL OF         11 INNER ITERATIONS.
    ------------------------------------------------

 NO OUTPUT CONTROL FOR STRESS PERIOD    8   TIME STEP   11
 
 SOLVING FOR HEAD 
                                                   Max.-Head-Change                         Max.-Flux-Residual
  Residual-Control   Outer-Iter.   Inner-Iter.     Column Row Layer    Maximum-Head-Change  Column Row Layer    Maximum-Flux-Residual          L2-NORM 
          0                 1           2             4    7     1      -0.1471810326E+00       4    7    1        -0.7733339090E+01      0.1639930202E+02
          0                 2           2             5    8     1      -0.6597360745E-02       5    8    1        -0.3636402941E+00      0.8747916671E+00
          0                 3           2             4    7     1      -0.6099097426E-01       4    7    1        -0.3184824225E+01      0.7764205010E+01
          0                 4           2             4    7     1      -0.2756154911E-02       5    8    1        -0.1463312525E+00      0.3559533334E+00
          0                 5           2             4    7     1      -0.7555722150E-03       4    7    1        -0.3945361630E-01      0.9627413007E-01
          0                 6           1             4    7     1       0.5938867295E-04       4    7    1         0.3188240064E-02      0.7774707323E-02

    ------------------------------------------------
       NWT REQUIRED            6 OUTER ITERATIONS 
       AND A TOTAL OF         11 INNER ITERATIONS.
    ------------------------------------------------

 NO OUTPUT CONTROL FOR STRESS PERIOD    8   TIME STEP   12
 
 SOLVING FOR HEAD 
                                                   Max.-Head-Change                         Max.-Flux-Residual
  Residual-Control   Outer-Iter.   Inner-Iter.     Column Row Layer    Maximum-Head-Change  Column Row Layer    Maximum-Flux-Residual          L2-NORM 
          0                 1           2             4    7     1      -0.1450814261E+00       4    7    1        -0.7625264530E+01      0.1613319549E+02
          0                 2           2             5    8     1      -0.6947302963E-02       5    8    1        -0.3827298928E+00      0.9192547496E+00
          0                 3           2             4    7     1      -0.6097022934E-01       4    7    1        -0.3183744525E+01      0.7760347973E+01
          0                 4           2             4    7     1      -0.2758266833E-02       5    8    1        -0.1465205596E+00      0.3563378585E+00
          0                 5           2             4    7     1      -0.7553653773E-03       4    7    1        -0.3944283958E-01      0.9623568193E-01
          0                 6           1             4    7     1       0.5936849364E-04       4    7    1         0.3187162654E-02      0.7770863482E-02

    ------------------------------------------------
       NWT REQUIRED            6 OUTER ITERATIONS 
       AND A TOTAL OF         11 INNER ITERATIONS.
    ------------------------------------------------

 NO OUTPUT CONTROL FOR STRESS PERIOD    8   TIME STEP   13
 
 SOLVING FOR HEAD 
                                                   Max.-Head-Change                         Max.-Flux-Residual
  Residual-Control   Outer-Iter.   Inner-Iter.     Column Row Layer    Maximum-Head-Change  Column Row Layer    Maximum-Flux-Residual          L2-NORM 
          0                 1           2             4    7     1      -0.1429665250E+00       4    7    1        -0.7516187958E+01      0.1588041804E+02
          0                 2           2             5    8     1      -0.7280937025E-02       5    8    1        -0.4009137585E+00      0.9620255377E+00
          0                 3           2             4    7     1      -0.6094933562E-01       4    7    1        -0.3182654787E+01      0.7756605494E+01
          0                 4           2             4    7     1      -0.2760394225E-02       5    8    1        -0.1467009175E+00      0.3567110247E+00
          0                 5           2             4    7     1      -0.7551570619E-03       4    7    1        -0.3943196198E-01      0.9619836890E-01
          0                 6           1             4    7     1       0.5934816993E-04       4    7    1         0.3186075178E-02      0.7767132902E-02

    ------------------------------------------------
       NWT REQUIRED            6 OUTER ITERATIONS 
       AND A TOTAL OF         11 INNER ITERATIONS.
    ------------------------------------------------

 NO OUTPUT CONTROL FOR STRESS PERIOD    8   TIME STEP   14
 
 SOLVING FOR HEAD 
                                                   Max.-Head-Change                         Max.-Flux-Residual
  Residual-Control   Outer-Iter.   Inner-Iter.     Column Row Layer    Maximum-Head-Change  Column Row Layer    Maximum-Flux-Residual          L2-NORM 
          0                 1           2             4    7     1      -0.1408397998E+00       4    7    1        -0.7406304289E+01      0.1564010555E+02
          0                 2           2             5    8     1      -0.7599306399E-02       5    8    1        -0.4182504155E+00      0.1003193111E+01
          0                 3           2             4    7     1      -0.6092832734E-01       4    7    1        -0.3181556960E+01      0.7752972527E+01
          0                 4           2             4    7     1      -0.2762533597E-02       5    8    1        -0.1468729036E+00      0.3570733238E+00
          0                 5           2             4    7     1      -0.7549476094E-03       4    7    1        -0.3942100299E-01      0.9616214149E-01
          0                 6           1             4    7     1       0.5932773444E-04       4    7    1         0.3184979526E-02      0.7763510858E-02

    ------------------------------------------------
       NWT REQUIRED            6 OUTER ITERATIONS 
       AND A TOTAL OF         11 INNER ITERATIONS.
    ------------------------------------------------

 OUTPUT CONTROL FOR STRESS PERIOD    8   TIME STEP   15
    PRINT BUDGET
    SAVE BUDGET
 UBDSV1 SAVING "         STORAGE" ON UNIT 102 AT TIME STEP 15, STRESS PERIOD   8
 UBDSV2 SAVING "   CONSTANT HEAD" ON UNIT 102 AT TIME STEP 15, STRESS PERIOD   8
 UBDSV1 SAVING "FLOW RIGHT FACE " ON UNIT 102 AT TIME STEP 15, STRESS PERIOD   8
 UBDSV1 SAVING "FLOW FRONT FACE " ON UNIT 102 AT TIME STEP 15, STRESS PERIOD   8

  HEAD DEP BOUNDS   PERIOD    8   STEP    15
 BOUNDARY      1   LAYER   1   ROW    13   COL     1   RATE   -0.298995    
 BOUNDARY      2   LAYER   1   ROW    14   COL     9   RATE    0.285478    



 STREAM LISTING     PERIOD      8   STEP       15

 LAYER ROW COL. STREAM  RCH.  FLOW INTO     FLOW TO   FLOW OUT OF   OVRLND.     DIRECT     STREAM       STREAM     STREAM     STREAM   STREAMBED  STREAMBED
                SEG.NO.  NO.  STRM. RCH.    AQUIFER    STRM. RCH.    RUNOFF     PRECIP       ET          HEAD       DEPTH      WIDTH   CONDCTNC.   GRADIENT

   1    1    1     1     1    7.4999E+01  4.2231E-01   7.4577E+01  0.000E+00  0.000E+00  0.000E+00  1.09475E+03  1.698E+00  1.998E+01  8.990E-02  1.566E+00
   1    2    2     1     2    7.4577E+01  6.5422E-01   7.3923E+01  0.000E+00  0.000E+00  0.000E+00  1.08975E+03  1.692E+00  1.992E+01  1.394E-01  1.564E+00
   1    3    3     1     3    7.3923E+01  5.5813E-01   7.3365E+01  0.000E+00  0.000E+00  0.000E+00  1.08410E+03  1.685E+00  1.985E+01  1.191E-01  1.562E+00
   1    3    4     1     4    7.3365E+01  5.1411E-01   7.2851E+01  0.000E+00  0.000E+00  0.000E+00  1.07909E+03  1.679E+00  1.980E+01  1.099E-01  1.560E+00
   1    4    5     2     1    7.0851E+01  4.0967E-01   7.0441E+01  0.000E+00  0.000E+00  0.000E+00  1.07419E+03  2.252E+00  1.200E+01  7.800E-02  1.751E+00
   1    5    6     2     2    7.0441E+01  3.1471E-01   7.0126E+01  0.000E+00  0.000E+00  0.000E+00  1.06875E+03  2.245E+00  1.200E+01  6.000E-02  1.748E+00
   1    6    6     2     3    7.0126E+01  3.1435E-01   6.9812E+01  0.000E+00  0.000E+00  0.000E+00  1.06403E+03  2.239E+00  1.200E+01  6.000E-02  1.746E+00
   1    7    6     2     4    6.9812E+01  3.1399E-01   6.9498E+01  0.000E+00  0.000E+00  0.000E+00  1.05931E+03  2.233E+00  1.200E+01  6.000E-02  1.744E+00
   1    8    6     2     5    6.9498E+01  3.1363E-01   6.9184E+01  0.000E+00  0.000E+00  0.000E+00  1.05459E+03  2.227E+00  1.200E+01  6.000E-02  1.742E+00
   1    3    5     3     1    2.0000E+00  2.8252E-01   1.7175E+00  0.000E+00  0.000E+00  0.000E+00  1.07555E+03  1.909E+00  9.636E+00  7.227E-02  1.955E+00
   1    3    6     3     2    1.7175E+00  2.4905E-01   1.4684E+00  0.000E+00  0.000E+00  0.000E+00  1.07264E+03  1.727E+00  8.909E+00  6.682E-02  1.864E+00
   1    3    7     3     3    1.4684E+00  1.9718E-01   1.2712E+00  0.000E+00  0.000E+00  0.000E+00  1.06987E+03  1.555E+00  8.218E+00  5.547E-02  1.777E+00
   1    4    8     3     4    1.2712E+00  2.2567E-01   1.0456E+00  0.000E+00  0.000E+00  0.000E+00  1.06682E+03  1.364E+00  7.455E+00  6.709E-02  1.682E+00
   1    5    8     3     5    1.0456E+00  1.5790E-01   8.8768E-01  0.000E+00  0.000E+00  0.000E+00  1.06362E+03  1.164E+00  6.655E+00  4.991E-02  1.582E+00
   1    6    8     3     6    8.8768E-01  5.5980E-02   8.3170E-01  0.000E+00  0.000E+00  0.000E+00  1.06158E+03  1.036E+00  6.145E+00  1.844E-02  1.518E+00
   1    5   10     4     1    1.0000E+01  9.0919E-02   9.9091E+00  0.000E+00  0.000E+00  0.000E+00  1.07836E+03  6.368E-01  1.000E+01  2.500E-02  1.212E+00
   1    5    9     4     2    9.9091E+00  1.8158E-01   9.7275E+00  0.000E+00  0.000E+00  0.000E+00  1.07154E+03  6.315E-01  1.000E+01  5.000E-02  1.211E+00
   1    6    8     4     3    9.7275E+00  1.2689E-01   9.6006E+00  0.000E+00  0.000E+00  0.000E+00  1.06381E+03  6.256E-01  1.000E+01  3.500E-02  1.209E+00
   1    6    8     5     1    1.0432E+01  2.2686E-01   1.0205E+01  0.000E+00  0.000E+00  0.000E+00  1.05868E+03  6.790E-01  1.542E+01  6.166E-02  1.226E+00
   1    7    7     5     2    1.0205E+01  2.7894E-01   9.9265E+00  0.000E+00  0.000E+00  0.000E+00  1.05417E+03  6.732E-01  1.519E+01  7.594E-02  1.224E+00
   1    8    7     5     3    9.9265E+00  1.9221E-01   9.7343E+00  0.000E+00  0.000E+00  0.000E+00  1.04992E+03  6.676E-01  1.497E+01  5.241E-02  1.223E+00
   1    8    6     5     4    9.7343E+00  1.3577E-01   9.5985E+00  0.000E+00  0.000E+00  0.000E+00  1.04691E+03  6.637E-01  1.482E+01  3.706E-02  1.221E+00
   1    9    6     6     1    7.8783E+01  3.2569E-01   7.8457E+01  0.000E+00  0.000E+00  0.000E+00  1.04516E+03  2.428E+00  1.200E+01  6.000E-02  1.809E+00
   1   10    7     6     2    7.8457E+01  3.2533E-01   7.8132E+01  0.000E+00  0.000E+00  0.000E+00  1.04060E+03  2.422E+00  1.200E+01  6.000E-02  1.807E+00
   1   11    7     6     3    7.8132E+01  3.2497E-01   7.7807E+01  0.000E+00  0.000E+00  0.000E+00  1.03605E+03  2.416E+00  1.200E+01  6.000E-02  1.805E+00
   1   12    7     6     4    7.7807E+01  3.2461E-01   7.7482E+01  0.000E+00  0.000E+00  0.000E+00  1.03150E+03  2.410E+00  1.200E+01  6.000E-02  1.803E+00
   1   13    7     6     5    7.7482E+01  2.5848E-02   7.7456E+01  0.000E+00  0.000E+00  0.000E+00  1.02832E+03  2.407E+00  1.200E+01  2.400E-02  3.590E-01
   1   14    9     7     1    1.5000E+02  1.3317E+00   1.4867E+02  0.000E+00  0.000E+00  0.000E+00  1.03987E+03  2.288E+00  5.529E+01  5.593E-01  7.937E-01
   1   13    8     7     2    1.4867E+02  1.8003E+00   1.4687E+02  0.000E+00  0.000E+00  0.000E+00  1.03478E+03  2.279E+00  5.526E+01  6.148E-01  9.761E-01
   1   13    7     7     3    1.4687E+02  1.3690E+00   1.4550E+02  0.000E+00  0.000E+00  0.000E+00  1.02969E+03  2.271E+00  5.522E+01  5.585E-01  8.171E-01
   1   13    6     8     1    2.2296E+02  1.0167E+00   2.2194E+02  0.000E+00  0.000E+00  0.000E+00  1.02514E+03  3.265E+00  4.735E+01  4.825E-01  7.024E-01
   1   13    5     8     2    2.2194E+02  2.0027E-01   2.2174E+02  0.000E+00  0.000E+00  0.000E+00  1.01889E+03  3.262E+00  4.730E+01  4.820E-01  1.385E-01
   1   13    4     8     3    2.2174E+02 -1.9164E+00   2.2365E+02  0.000E+00  0.000E+00  0.000E+00  1.01264E+03  3.267E+00  4.737E+01  4.827E+00 -1.323E-01
   1   13    3     8     4    2.2365E+02 -3.0694E+00   2.2672E+02  0.000E+00  0.000E+00  0.000E+00  1.00641E+03  3.280E+00  4.757E+01  4.847E+00 -2.111E-01
   1   13    2     8     5    2.2672E+02 -2.5431E+00   2.2927E+02  0.000E+00  0.000E+00  0.000E+00  1.00017E+03  3.296E+00  4.779E+01  4.870E+00 -1.741E-01
   1   13    1     8     6    2.2927E+02 -2.0097E+00   2.3128E+02  0.000E+00  0.000E+00  0.000E+00  9.95183E+02  3.308E+00  4.797E+01  2.933E+00 -2.284E-01



 UBDSV3 SAVING "           GW ET" ON UNIT  61 AT TIME STEP 15, STRESS PERIOD   8
 UBDSV3 SAVING "    UZF RECHARGE" ON UNIT  61 AT TIME STEP 15, STRESS PERIOD   8
 UBDSV3 SAVING " SURFACE LEAKAGE" ON UNIT  61 AT TIME STEP 15, STRESS PERIOD   8
 UBDSV3 SAVING "       HORT+DUNN" ON UNIT  61 AT TIME STEP 15, STRESS PERIOD   8
 UBDSV3 SAVING "  STORAGE CHANGE" ON UNIT  61 AT TIME STEP 15, STRESS PERIOD   8


UNSATURATED ZONE PACKAGE VOLUMETRIC BUDGET FOR  TIME STEP    15 STRESS PERIOD    8
  ------------------------------------------------------------------------------



     CUMULATIVE VOLUMES      L**3       RATES FOR THIS TIME STEP      L**3/T
     ------------------                 ------------------------

           IN:                                      IN:
           ---                                      ---
        INFILTRATION =   218142212.3731          INFILTRATION =          88.3416

          OUT:                                     OUT:
          ----                                     ----
              UZF ET =   181873771.5612                UZF ET =          60.8175
        UZF RECHARGE =       73224.0000          UZF RECHARGE =       0.0000E+00

            IN - OUT =    36195216.8120              IN - OUT =          27.5241

          STORAGE:                                 STORAGE:
          --------                                 --------
      STORAGE CHANGE =    36195219.8561        STORAGE CHANGE =          27.5241

 PERCENT DISCREPANCY IS DIFFERENCE BETWEEN IN-OUT MINUS CHANGE IN STORAGE
 DIVIDED BY THE AVERAGE OF IN AND OUT TIMES 100

 PERCENT DISCREPANCY =           0.00     PERCENT DISCREPANCY =          -0.00






 

            AG WELLS      PERIOD    8   STEP  15
 AG WELL      1   LAYER   1   ROW     6   COL     4   RATE    -14.5824    
 AG WELL      2   LAYER   1   ROW     6   COL     5   RATE    -14.5824    
 AG WELL      3   LAYER   1   ROW     7   COL     4   RATE    -14.5824    
 AG WELL      4   LAYER   1   ROW     7   COL     5   RATE    -14.5824    
 AG WELL      5   LAYER   1   ROW     8   COL     4   RATE    -14.5824    
 AG WELL      6   LAYER   1   ROW     8   COL     5   RATE    -14.5824    
 
 

        GW IRRIGATION     PERIOD    8   STEP  15
 AG WELL      1   ROW     6   COL     4   RATE     14.5824    
 AG WELL      2   ROW     6   COL     5   RATE     14.5824    
 AG WELL      3   ROW     7   COL     4   RATE     14.5824    
 AG WELL      4   ROW     7   COL     5   RATE     14.5824    
 AG WELL      5   ROW     8   COL     4   RATE     14.5824    
 AG WELL      6   ROW     8   COL     5   RATE     14.5824    
 
1
  VOLUMETRIC BUDGET FOR AGRICULTURAL FIELDS AT  END OF TIME STEP   15, STRESS PERIOD   8
  ------------------------------------------------------------------------------

     CUMULATIVE VOLUMES      L**3       RATES FOR THIS TIME STEP      L**3/T
     ------------------                 ------------------------

           IN:                                      IN:
           ---                                      ---
               AG WELLS  =   203581024.0000                 AG WELLS  =          87.4941
      DIVERSION SEGMENTS =           0.0000        DIVERSION SEGMENTS =           0.0000
           GW IRRIGATION =           0.0000             GW IRRIGATION =           0.0000
           SW IRRIGATION =           0.0000             SW IRRIGATION =           0.0000
        SYSTEM LOSSES GW =           0.0000          SYSTEM LOSSES GW =           0.0000
        SYSTEM LOSSES SW =           0.0000          SYSTEM LOSSES SW =           0.0000

                TOTAL IN =   203581024.0000                  TOTAL IN =          87.4941

          OUT:                                     OUT:
          ----                                     ----
               AG WELLS  =           0.0000                 AG WELLS  =           0.0000
      DIVERSION SEGMENTS =           0.0000        DIVERSION SEGMENTS =           0.0000
           GW IRRIGATION =   203581024.0000             GW IRRIGATION =          87.4941
           SW IRRIGATION =           0.0000             SW IRRIGATION =           0.0000
        SYSTEM LOSSES GW =           0.0000          SYSTEM LOSSES GW =           0.0000
        SYSTEM LOSSES SW =           0.0000          SYSTEM LOSSES SW =           0.0000

               TOTAL OUT =   203581024.0000                 TOTAL OUT =          87.4941

                IN - OUT =           0.0000                  IN - OUT =           0.0000

     PERCENT DISCREPANCY =           0.00         PERCENT DISCREPANCY =           0.00



1
  VOLUMETRIC BUDGET FOR ENTIRE MODEL AT END OF TIME STEP   15, STRESS PERIOD   8
  ------------------------------------------------------------------------------

     CUMULATIVE VOLUMES      L**3       RATES FOR THIS TIME STEP      L**3/T
     ------------------                 ------------------------

           IN:                                      IN:
           ---                                      ---
             STORAGE     =   209012128.0000               STORAGE     =          86.6402
       CONSTANT HEAD     =           0.0000         CONSTANT HEAD     =           0.0000
     HEAD DEP BOUNDS     =     4904513.0000       HEAD DEP BOUNDS     =           0.2855
      STREAM LEAKAGE     =   219645072.0000        STREAM LEAKAGE     =          13.2610
        UZF RECHARGE     =       73223.9531          UZF RECHARGE     =           0.0000
               GW ET     =           0.0000                 GW ET     =           0.0000
     SURFACE LEAKAGE     =           0.0000       SURFACE LEAKAGE     =           0.0000
           AG WELLS      =           0.0000             AG WELLS      =           0.0000

                TOTAL IN =   433634944.0000                  TOTAL IN =         100.1867

          OUT:                                     OUT:
          ----                                     ----
             STORAGE     =    43613092.0000               STORAGE     =           1.3072
       CONSTANT HEAD     =           0.0000         CONSTANT HEAD     =           0.0000
     HEAD DEP BOUNDS     =     5067678.0000       HEAD DEP BOUNDS     =           0.2990
      STREAM LEAKAGE     =   173063824.0000        STREAM LEAKAGE     =           9.5386
        UZF RECHARGE     =           0.0000          UZF RECHARGE     =           0.0000
               GW ET     =     8313708.0000                 GW ET     =           1.5490
     SURFACE LEAKAGE     =           0.0000       SURFACE LEAKAGE     =           0.0000
           AG WELLS      =   203581024.0000             AG WELLS      =          87.4941

               TOTAL OUT =   433639328.0000                 TOTAL OUT =         100.1880

                IN - OUT =       -4384.0000                  IN - OUT =      -1.3046E-03

     PERCENT DISCREPANCY =          -0.00         PERCENT DISCREPANCY =          -0.00






         TIME SUMMARY AT END OF TIME STEP   15 IN STRESS PERIOD    8
                    SECONDS     MINUTES      HOURS       DAYS        YEARS
                    -----------------------------------------------------------
   TIME STEP LENGTH  87667.      1461.1      24.352      1.0147     2.77799E-03
 STRESS PERIOD TIME 1.31500E+06  21917.      365.28      15.220     4.16698E-02
         TOTAL TIME 1.71814E+07 2.86357E+05  4772.6      198.86     0.54445    
1
 
 SOLVING FOR HEAD 
                                                   Max.-Head-Change                         Max.-Flux-Residual
  Residual-Control   Outer-Iter.   Inner-Iter.     Column Row Layer    Maximum-Head-Change  Column Row Layer    Maximum-Flux-Residual          L2-NORM 
          0                 1           2             4    7     1      -0.1387047234E+00       4    7    1        -0.7295808110E+01      0.1541147774E+02
          0                 2           2             5    8     1      -0.7903361340E-02       5    8    1        -0.4347931836E+00      0.1042840564E+01
          0                 3           2             4    7     1      -0.6090723876E-01       4    7    1        -0.3180452989E+01      0.7749444486E+01
          0                 4           2             4    7     1      -0.2764681455E-02       5    8    1        -0.1470370444E+00      0.3574252038E+00
          0                 5           2             4    7     1      -0.7547373621E-03       4    7    1        -0.3940998209E-01      0.9612695456E-01
          0                 6           1             4    7     1       0.5930722072E-04       4    7    1         0.3183877665E-02      0.7759992819E-02

    ------------------------------------------------
       NWT REQUIRED            6 OUTER ITERATIONS 
       AND A TOTAL OF         11 INNER ITERATIONS.
    ------------------------------------------------

 NO OUTPUT CONTROL FOR STRESS PERIOD    8   TIME STEP   16
 
 SOLVING FOR HEAD 
                                                   Max.-Head-Change                         Max.-Flux-Residual
  Residual-Control   Outer-Iter.   Inner-Iter.     Column Row Layer    Maximum-Head-Change  Column Row Layer    Maximum-Flux-Residual          L2-NORM 
          0                 1           2             4    7     1      -0.1365646440E+00       4    7    1        -0.7184886762E+01      0.1519382722E+02
          0                 2           2             5    8     1      -0.8194008388E-02       5    8    1        -0.4505929040E+00      0.1081048410E+01
          0                 3           2             4    7     1      -0.6088610293E-01       4    7    1        -0.3179344747E+01      0.7746017015E+01
          0                 4           2             4    7     1      -0.2766834430E-02       5    8    1        -0.1471938413E+00      0.3577670910E+00
          0                 5           2             4    7     1      -0.7545266497E-03       4    7    1        -0.3939891803E-01      0.9609276539E-01
          0                 6           1             4    7     1       0.5928666140E-04       4    7    1         0.3182771494E-02      0.7756574453E-02

    ------------------------------------------------
       NWT REQUIRED            6 OUTER ITERATIONS 
       AND A TOTAL OF         11 INNER ITERATIONS.
    ------------------------------------------------

 NO OUTPUT CONTROL FOR STRESS PERIOD    8   TIME STEP   17
 
 SOLVING FOR HEAD 
                                                   Max.-Head-Change                         Max.-Flux-Residual
  Residual-Control   Outer-Iter.   Inner-Iter.     Column Row Layer    Maximum-Head-Change  Column Row Layer    Maximum-Flux-Residual          L2-NORM 
          0                 1           2             4    7     1      -0.1344223773E+00       4    7    1        -0.7073699193E+01      0.1498647992E+02
          0                 2           2             5    8     1      -0.8472044742E-02       5    8    1        -0.4656942287E+00      0.1117889364E+01
          0                 3           2             4    7     1      -0.6086494762E-01       4    7    1        -0.3178233824E+01      0.7742685988E+01
          0                 4           2             4    7     1      -0.2768989693E-02       5    8    1        -0.1473437353E+00      0.3580993909E+00
          0                 5           2             4    7     1      -0.7543157484E-03       4    7    1        -0.3938782666E-01      0.9605953327E-01
          0                 6           1             4    7     1       0.5926608358E-04       4    7    1         0.3181662597E-02      0.7753251685E-02

    ------------------------------------------------
       NWT REQUIRED            6 OUTER ITERATIONS 
       AND A TOTAL OF         11 INNER ITERATIONS.
    ------------------------------------------------

 NO OUTPUT CONTROL FOR STRESS PERIOD    8   TIME STEP   18
 
 SOLVING FOR HEAD 
                                                   Max.-Head-Change                         Max.-Flux-Residual
  Residual-Control   Outer-Iter.   Inner-Iter.     Column Row Layer    Maximum-Head-Change  Column Row Layer    Maximum-Flux-Residual          L2-NORM 
          0                 1           2             4    7     1      -0.1322806438E+00       4    7    1        -0.6962398684E+01      0.1478881502E+02
          0                 2           2             5    8     1      -0.8738279597E-02       5    8    1        -0.4801424148E+00      0.1153436048E+01
          0                 3           2             4    7     1      -0.6084379965E-01       4    7    1        -0.3177121750E+01      0.7739447299E+01
          0                 4           2             4    7     1      -0.2771144505E-02       5    8    1        -0.1474871732E+00      0.3584225073E+00
          0                 5           2             4    7     1      -0.7541049253E-03       4    7    1        -0.3937672332E-01      0.9602721777E-01
          0                 6           1             4    7     1       0.5924551220E-04       4    7    1         0.3180552481E-02      0.7750020591E-02

    ------------------------------------------------
       NWT REQUIRED            6 OUTER ITERATIONS 
       AND A TOTAL OF         11 INNER ITERATIONS.
    ------------------------------------------------

 NO OUTPUT CONTROL FOR STRESS PERIOD    8   TIME STEP   19
 
 SOLVING FOR HEAD 
                                                   Max.-Head-Change                         Max.-Flux-Residual
  Residual-Control   Outer-Iter.   Inner-Iter.     Column Row Layer    Maximum-Head-Change  Column Row Layer    Maximum-Flux-Residual          L2-NORM 
          0                 1           2             4    7     1      -0.1301419479E+00       4    7    1        -0.6851126262E+01      0.1460027656E+02
          0                 2           2             5    8     1      -0.8993392573E-02       5    8    1        -0.4939754990E+00      0.1187752958E+01
          0                 3           2             4    7     1      -0.6082268373E-01       4    7    1        -0.3176009937E+01      0.7736297378E+01
          0                 4           2             4    7     1      -0.2773296346E-02       5    8    1        -0.1476245308E+00      0.3587367925E+00
          0                 5           2             4    7     1      -0.7538944275E-03       4    7    1        -0.3936562214E-01      0.9599578374E-01
          0                 6           1             4    7     1       0.5922497270E-04       4    7    1         0.3179442585E-02      0.7746877472E-02

    ------------------------------------------------
       NWT REQUIRED            6 OUTER ITERATIONS 
       AND A TOTAL OF         11 INNER ITERATIONS.
    ------------------------------------------------

 NO OUTPUT CONTROL FOR STRESS PERIOD    8   TIME STEP   20
 
 SOLVING FOR HEAD 
                                                   Max.-Head-Change                         Max.-Flux-Residual
  Residual-Control   Outer-Iter.   Inner-Iter.     Column Row Layer    Maximum-Head-Change  Column Row Layer    Maximum-Flux-Residual          L2-NORM 
          0                 1           2             4    7     1      -0.1280085787E+00       4    7    1        -0.6740011757E+01      0.1442033607E+02
          0                 2           2             5    8     1      -0.9238055295E-02       5    8    1        -0.5072310736E+00      0.1220903074E+01
          0                 3           2             4    7     1      -0.6080162243E-01       4    7    1        -0.3174899682E+01      0.7733232609E+01
          0                 4           2             4    7     1      -0.2775442914E-02       5    8    1        -0.1477561786E+00      0.3590426030E+00
          0                 5           2             4    7     1      -0.7536844790E-03       4    7    1        -0.3935453607E-01      0.9596519548E-01
          0                 6           1             4    7     1       0.5920448563E-04       4    7    1         0.3178334187E-02      0.7743818933E-02

    ------------------------------------------------
       NWT REQUIRED            6 OUTER ITERATIONS 
       AND A TOTAL OF         11 INNER ITERATIONS.
    ------------------------------------------------

 NO OUTPUT CONTROL FOR STRESS PERIOD    8   TIME STEP   21
 
 SOLVING FOR HEAD 
                                                   Max.-Head-Change                         Max.-Flux-Residual
  Residual-Control   Outer-Iter.   Inner-Iter.     Column Row Layer    Maximum-Head-Change  Column Row Layer    Maximum-Flux-Residual          L2-NORM 
          0                 1           2             4    7     1      -0.1258826346E+00       4    7    1        -0.6629173841E+01      0.1424851502E+02
          0                 2           2             5    8     1      -0.9472877506E-02       5    8    1        -0.5199431796E+00      0.1252944689E+01
          0                 3           2             4    7     1      -0.6078063644E-01       4    7    1        -0.3173792173E+01      0.7730249684E+01
          0                 4           2             4    7     1      -0.2777582097E-02       5    8    1        -0.1478824533E+00      0.3593402662E+00
          0                 5           2             4    7     1      -0.7534752868E-03       4    7    1        -0.3934347702E-01      0.9593542038E-01
          0                 6           1             4    7     1       0.5918407252E-04       4    7    1         0.3177228482E-02      0.7740841697E-02

    ------------------------------------------------
       NWT REQUIRED            6 OUTER ITERATIONS 
       AND A TOTAL OF         11 INNER ITERATIONS.
    ------------------------------------------------

 NO OUTPUT CONTROL FOR STRESS PERIOD    8   TIME STEP   22
 
 SOLVING FOR HEAD 
                                                   Max.-Head-Change                         Max.-Flux-Residual
  Residual-Control   Outer-Iter.   Inner-Iter.     Column Row Layer    Maximum-Head-Change  Column Row Layer    Maximum-Flux-Residual          L2-NORM 
          0                 1           2             4    7     1      -0.1237661624E+00       4    7    1        -0.6518728581E+01      0.1408436257E+02
          0                 2           2             5    8     1      -0.9698438823E-02       5    8    1        -0.5321442168E+00      0.1283932403E+01
          0                 3           2             4    7     1      -0.6075974593E-01       4    7    1        -0.3172688569E+01      0.7727345418E+01
          0                 4           2             4    7     1      -0.2779711836E-02       5    8    1        -0.1480036744E+00      0.3596300975E+00
          0                 5           2             4    7     1      -0.7532670509E-03       4    7    1        -0.3933245654E-01      0.9590642694E-01
          0                 6           1             4    7     1       0.5916375210E-04       4    7    1         0.3176126647E-02      0.7737942439E-02

    ------------------------------------------------
       NWT REQUIRED            6 OUTER ITERATIONS 
       AND A TOTAL OF         11 INNER ITERATIONS.
    ------------------------------------------------

 NO OUTPUT CONTROL FOR STRESS PERIOD    8   TIME STEP   23
 
 SOLVING FOR HEAD 
                                                   Max.-Head-Change                         Max.-Flux-Residual
  Residual-Control   Outer-Iter.   Inner-Iter.     Column Row Layer    Maximum-Head-Change  Column Row Layer    Maximum-Flux-Residual          L2-NORM 
          0                 1           2             4    7     1      -0.1216607661E+00       4    7    1        -0.6408767490E+01      0.1392746130E+02
          0                 2           2             5    8     1      -0.9915278143E-02       5    8    1        -0.5438642391E+00      0.1313918137E+01
          0                 3           2             4    7     1      -0.6073896670E-01       4    7    1        -0.3171589785E+01      0.7724516756E+01
          0                 4           2             4    7     1      -0.2781830516E-02       5    8    1        -0.1481201391E+00      0.3599123997E+00
          0                 5           2             4    7     1      -0.7530599295E-03       4    7    1        -0.3932148385E-01      0.9587818503E-01
          0                 6           1             4    7     1       0.5914353982E-04       4    7    1         0.3175029558E-02      0.7735118978E-02

    ------------------------------------------------
       NWT REQUIRED            6 OUTER ITERATIONS 
       AND A TOTAL OF         11 INNER ITERATIONS.
    ------------------------------------------------

 NO OUTPUT CONTROL FOR STRESS PERIOD    8   TIME STEP   24
 
 SOLVING FOR HEAD 
                                                   Max.-Head-Change                         Max.-Flux-Residual
  Residual-Control   Outer-Iter.   Inner-Iter.     Column Row Layer    Maximum-Head-Change  Column Row Layer    Maximum-Flux-Residual          L2-NORM 
          0                 1           2             4    7     1      -0.1195681575E+00       4    7    1        -0.6299388298E+01      0.1377742221E+02
          0                 2           2             5    8     1      -0.1012388244E-01       5    8    1        -0.5551304068E+00      0.1342949840E+01
          0                 3           2             4    7     1      -0.6071831563E-01       4    7    1        -0.3170496800E+01      0.7721760835E+01
          0                 4           2             4    7     1      -0.2783936414E-02       5    8    1        -0.1482321155E+00      0.3601874569E+00
          0                 5           2             4    7     1      -0.7528540906E-03       4    7    1        -0.3931056870E-01      0.9585066633E-01
          0                 6           1             4    7     1       0.5912345199E-04       4    7    1         0.3173938227E-02      0.7732366524E-02

    ------------------------------------------------
       NWT REQUIRED            6 OUTER ITERATIONS 
       AND A TOTAL OF         11 INNER ITERATIONS.
    ------------------------------------------------

 NO OUTPUT CONTROL FOR STRESS PERIOD    8   TIME STEP   25
 
 SOLVING FOR HEAD 
                                                   Max.-Head-Change                         Max.-Flux-Residual
  Residual-Control   Outer-Iter.   Inner-Iter.     Column Row Layer    Maximum-Head-Change  Column Row Layer    Maximum-Flux-Residual          L2-NORM 
          0                 1           2             4    7     1      -0.1174896273E+00       4    7    1        -0.6190665170E+01      0.1363388340E+02
          0                 2           2             5    8     1      -0.1032473273E-01       5    8    1        -0.5659695360E+00      0.1371074170E+01
          0                 3           2             4    7     1      -0.6069780543E-01       4    7    1        -0.3169410354E+01      0.7719074835E+01
          0                 4           2             4    7     1      -0.2786028232E-02       5    8    1        -0.1483398684E+00      0.3604555490E+00
          0                 5           2             4    7     1      -0.7526496600E-03       4    7    1        -0.3929971848E-01      0.9582384294E-01
          0                 6           1             4    7     1       0.5910350137E-04       4    7    1         0.3172853371E-02      0.7729684206E-02

    ------------------------------------------------
       NWT REQUIRED            6 OUTER ITERATIONS 
       AND A TOTAL OF         11 INNER ITERATIONS.
    ------------------------------------------------

 NO OUTPUT CONTROL FOR STRESS PERIOD    8   TIME STEP   26
 
 SOLVING FOR HEAD 
                                                   Max.-Head-Change                         Max.-Flux-Residual
  Residual-Control   Outer-Iter.   Inner-Iter.     Column Row Layer    Maximum-Head-Change  Column Row Layer    Maximum-Flux-Residual          L2-NORM 
          0                 1           2             4    7     1      -0.1154267369E+00       4    7    1        -0.6082686861E+01      0.1349652228E+02
          0                 2           2             5    8     1      -0.1051823413E-01       5    8    1        -0.5764042208E+00      0.1398332519E+01
          0                 3           2             4    7     1      -0.6067745147E-01       4    7    1        -0.3168331335E+01      0.7716456306E+01
          0                 4           2             4    7     1      -0.2788104397E-02       5    8    1        -0.1484436210E+00      0.3607169197E+00
          0                 5           2             4    7     1      -0.7524467924E-03       4    7    1        -0.3928894215E-01      0.9579769065E-01
          0                 6           1             4    7     1       0.5908370329E-04       4    7    1         0.3171775919E-02      0.7727068885E-02

    ------------------------------------------------
       NWT REQUIRED            6 OUTER ITERATIONS 
       AND A TOTAL OF         11 INNER ITERATIONS.
    ------------------------------------------------

 NO OUTPUT CONTROL FOR STRESS PERIOD    8   TIME STEP   27
 
 SOLVING FOR HEAD 
                                                   Max.-Head-Change                         Max.-Flux-Residual
  Residual-Control   Outer-Iter.   Inner-Iter.     Column Row Layer    Maximum-Head-Change  Column Row Layer    Maximum-Flux-Residual          L2-NORM 
          0                 1           2             4    7     1      -0.1133804980E+00       4    7    1        -0.5975512459E+01      0.1336501588E+02
          0                 2           2             5    8     1      -0.1070480674E-01       5    8    1        -0.5864578162E+00      0.1424765692E+01
          0                 3           2             4    7     1      -0.6065726371E-01       4    7    1        -0.3167260334E+01      0.7713902704E+01
          0                 4           2             4    7     1      -0.2790163891E-02       5    8    1        -0.1485436041E+00      0.3609718218E+00
          0                 5           2             4    7     1      -0.7522455858E-03       4    7    1        -0.3927824556E-01      0.9577218426E-01
          0                 6           1             4    7     1       0.5906406640E-04       4    7    1         0.3170706426E-02      0.7724518221E-02

    ------------------------------------------------
       NWT REQUIRED            6 OUTER ITERATIONS 
       AND A TOTAL OF         11 INNER ITERATIONS.
    ------------------------------------------------

 NO OUTPUT CONTROL FOR STRESS PERIOD    8   TIME STEP   28
 
 SOLVING FOR HEAD 
                                                   Max.-Head-Change                         Max.-Flux-Residual
  Residual-Control   Outer-Iter.   Inner-Iter.     Column Row Layer    Maximum-Head-Change  Column Row Layer    Maximum-Flux-Residual          L2-NORM 
          0                 1           2             4    7     1      -0.1113519426E+00       4    7    1        -0.5869201686E+01      0.1323906576E+02
          0                 2           2             5    8     1      -0.1088482760E-01       5    8    1        -0.5961513217E+00      0.1450411713E+01
          0                 3           2             4    7     1      -0.6063725230E-01       4    7    1        -0.3166197949E+01      0.7711411576E+01
          0                 4           2             4    7     1      -0.2792205673E-02       5    8    1        -0.1486400251E+00      0.3612204997E+00
          0                 5           2             4    7     1      -0.7520461421E-03       4    7    1        -0.3926763474E-01      0.9574729946E-01
          0                 6           1             4    7     1       0.5904460126E-04       4    7    1         0.3169645508E-02      0.7722029544E-02

    ------------------------------------------------
       NWT REQUIRED            6 OUTER ITERATIONS 
       AND A TOTAL OF         11 INNER ITERATIONS.
    ------------------------------------------------

 NO OUTPUT CONTROL FOR STRESS PERIOD    8   TIME STEP   29
 
 SOLVING FOR HEAD 
                                                   Max.-Head-Change                         Max.-Flux-Residual
  Residual-Control   Outer-Iter.   Inner-Iter.     Column Row Layer    Maximum-Head-Change  Column Row Layer    Maximum-Flux-Residual          L2-NORM 
          0                 1           2             4    7     1      -0.1093422598E+00       4    7    1        -0.5763822590E+01      0.1311842166E+02
          0                 2           2             5    8     1      -0.1105863347E-01       5    8    1        -0.6055035076E+00      0.1475305172E+01
          0                 3           2             4    7     1      -0.6061742894E-01       4    7    1        -0.3165144860E+01      0.7708980896E+01
          0                 4           2             4    7     1      -0.2794228547E-02       5    8    1        -0.1487330692E+00      0.3614631547E+00
          0                 5           2             4    7     1      -0.7518485771E-03       4    7    1        -0.3925711646E-01      0.9572301628E-01
          0                 6           1             4    7     1       0.5902531884E-04       4    7    1         0.3168593823E-02      0.7719601041E-02

    ------------------------------------------------
       NWT REQUIRED            6 OUTER ITERATIONS 
       AND A TOTAL OF         11 INNER ITERATIONS.
    ------------------------------------------------

 NO OUTPUT CONTROL FOR STRESS PERIOD    8   TIME STEP   30



 STREAM LISTING     PERIOD      8   STEP       30

 LAYER ROW COL. STREAM  RCH.  FLOW INTO     FLOW TO   FLOW OUT OF   OVRLND.     DIRECT     STREAM       STREAM     STREAM     STREAM   STREAMBED  STREAMBED
                SEG.NO.  NO.  STRM. RCH.    AQUIFER    STRM. RCH.    RUNOFF     PRECIP       ET          HEAD       DEPTH      WIDTH   CONDCTNC.   GRADIENT

   1    1    1     1     1    7.4999E+01  4.2231E-01   7.4577E+01  0.000E+00  0.000E+00  0.000E+00  1.09475E+03  1.698E+00  1.998E+01  8.990E-02  1.566E+00
   1    2    2     1     2    7.4577E+01  6.5422E-01   7.3923E+01  0.000E+00  0.000E+00  0.000E+00  1.08975E+03  1.692E+00  1.992E+01  1.394E-01  1.564E+00
   1    3    3     1     3    7.3923E+01  5.5813E-01   7.3365E+01  0.000E+00  0.000E+00  0.000E+00  1.08410E+03  1.685E+00  1.985E+01  1.191E-01  1.562E+00
   1    3    4     1     4    7.3365E+01  5.1411E-01   7.2851E+01  0.000E+00  0.000E+00  0.000E+00  1.07909E+03  1.679E+00  1.980E+01  1.099E-01  1.560E+00
   1    4    5     2     1    7.0851E+01  4.0967E-01   7.0441E+01  0.000E+00  0.000E+00  0.000E+00  1.07419E+03  2.252E+00  1.200E+01  7.800E-02  1.751E+00
   1    5    6     2     2    7.0441E+01  3.1471E-01   7.0126E+01  0.000E+00  0.000E+00  0.000E+00  1.06875E+03  2.245E+00  1.200E+01  6.000E-02  1.748E+00
   1    6    6     2     3    7.0126E+01  3.1435E-01   6.9812E+01  0.000E+00  0.000E+00  0.000E+00  1.06403E+03  2.239E+00  1.200E+01  6.000E-02  1.746E+00
   1    7    6     2     4    6.9812E+01  3.1399E-01   6.9498E+01  0.000E+00  0.000E+00  0.000E+00  1.05931E+03  2.233E+00  1.200E+01  6.000E-02  1.744E+00
   1    8    6     2     5    6.9498E+01  3.1363E-01   6.9184E+01  0.000E+00  0.000E+00  0.000E+00  1.05459E+03  2.227E+00  1.200E+01  6.000E-02  1.742E+00
   1    3    5     3     1    2.0000E+00  2.8252E-01   1.7175E+00  0.000E+00  0.000E+00  0.000E+00  1.07555E+03  1.909E+00  9.636E+00  7.227E-02  1.955E+00
   1    3    6     3     2    1.7175E+00  2.4905E-01   1.4684E+00  0.000E+00  0.000E+00  0.000E+00  1.07264E+03  1.727E+00  8.909E+00  6.682E-02  1.864E+00
   1    3    7     3     3    1.4684E+00  1.9718E-01   1.2712E+00  0.000E+00  0.000E+00  0.000E+00  1.06987E+03  1.555E+00  8.218E+00  5.547E-02  1.777E+00
   1    4    8     3     4    1.2712E+00  2.2567E-01   1.0456E+00  0.000E+00  0.000E+00  0.000E+00  1.06682E+03  1.364E+00  7.455E+00  6.709E-02  1.682E+00
   1    5    8     3     5    1.0456E+00  1.5790E-01   8.8768E-01  0.000E+00  0.000E+00  0.000E+00  1.06362E+03  1.164E+00  6.655E+00  4.991E-02  1.582E+00
   1    6    8     3     6    8.8768E-01  5.5980E-02   8.3170E-01  0.000E+00  0.000E+00  0.000E+00  1.06158E+03  1.036E+00  6.145E+00  1.844E-02  1.518E+00
   1    5   10     4     1    1.0000E+01  9.0919E-02   9.9091E+00  0.000E+00  0.000E+00  0.000E+00  1.07836E+03  6.368E-01  1.000E+01  2.500E-02  1.212E+00
   1    5    9     4     2    9.9091E+00  1.8158E-01   9.7275E+00  0.000E+00  0.000E+00  0.000E+00  1.07154E+03  6.315E-01  1.000E+01  5.000E-02  1.211E+00
   1    6    8     4     3    9.7275E+00  1.2689E-01   9.6006E+00  0.000E+00  0.000E+00  0.000E+00  1.06381E+03  6.256E-01  1.000E+01  3.500E-02  1.209E+00
   1    6    8     5     1    1.0432E+01  2.2686E-01   1.0205E+01  0.000E+00  0.000E+00  0.000E+00  1.05868E+03  6.790E-01  1.542E+01  6.166E-02  1.226E+00
   1    7    7     5     2    1.0205E+01  2.7894E-01   9.9265E+00  0.000E+00  0.000E+00  0.000E+00  1.05417E+03  6.732E-01  1.519E+01  7.594E-02  1.224E+00
   1    8    7     5     3    9.9265E+00  1.9221E-01   9.7343E+00  0.000E+00  0.000E+00  0.000E+00  1.04992E+03  6.676E-01  1.497E+01  5.241E-02  1.223E+00
   1    8    6     5     4    9.7343E+00  1.3577E-01   9.5985E+00  0.000E+00  0.000E+00  0.000E+00  1.04691E+03  6.637E-01  1.482E+01  3.706E-02  1.221E+00
   1    9    6     6     1    7.8783E+01  3.2569E-01   7.8457E+01  0.000E+00  0.000E+00  0.000E+00  1.04516E+03  2.428E+00  1.200E+01  6.000E-02  1.809E+00
   1   10    7     6     2    7.8457E+01  3.2533E-01   7.8132E+01  0.000E+00  0.000E+00  0.000E+00  1.04060E+03  2.422E+00  1.200E+01  6.000E-02  1.807E+00
   1   11    7     6     3    7.8132E+01  3.2497E-01   7.7807E+01  0.000E+00  0.000E+00  0.000E+00  1.03605E+03  2.416E+00  1.200E+01  6.000E-02  1.805E+00
   1   12    7     6     4    7.7807E+01  3.2461E-01   7.7482E+01  0.000E+00  0.000E+00  0.000E+00  1.03150E+03  2.410E+00  1.200E+01  6.000E-02  1.803E+00
   1   13    7     6     5    7.7482E+01  2.5721E-02   7.7457E+01  0.000E+00  0.000E+00  0.000E+00  1.02832E+03  2.407E+00  1.200E+01  2.400E-02  3.572E-01
   1   14    9     7     1    1.5000E+02  1.3316E+00   1.4867E+02  0.000E+00  0.000E+00  0.000E+00  1.03987E+03  2.288E+00  5.529E+01  5.593E-01  7.936E-01
   1   13    8     7     2    1.4867E+02  1.7983E+00   1.4687E+02  0.000E+00  0.000E+00  0.000E+00  1.03478E+03  2.279E+00  5.526E+01  6.148E-01  9.751E-01
   1   13    7     7     3    1.4687E+02  1.3661E+00   1.4550E+02  0.000E+00  0.000E+00  0.000E+00  1.02969E+03  2.271E+00  5.522E+01  5.585E-01  8.154E-01
   1   13    6     8     1    2.2296E+02  1.0158E+00   2.2194E+02  0.000E+00  0.000E+00  0.000E+00  1.02514E+03  3.265E+00  4.735E+01  4.825E-01  7.018E-01
   1   13    5     8     2    2.2194E+02  2.0177E-01   2.2174E+02  0.000E+00  0.000E+00  0.000E+00  1.01889E+03  3.262E+00  4.730E+01  4.820E-01  1.395E-01
   1   13    4     8     3    2.2174E+02 -1.9143E+00   2.2366E+02  0.000E+00  0.000E+00  0.000E+00  1.01264E+03  3.267E+00  4.737E+01  4.827E+00 -1.322E-01
   1   13    3     8     4    2.2366E+02 -3.0672E+00   2.2672E+02  0.000E+00  0.000E+00  0.000E+00  1.00641E+03  3.280E+00  4.757E+01  4.847E+00 -2.109E-01
   1   13    2     8     5    2.2672E+02 -2.5089E+00   2.2923E+02  0.000E+00  0.000E+00  0.000E+00  1.00017E+03  3.296E+00  4.779E+01  4.870E+00 -1.717E-01
   1   13    1     8     6    2.2923E+02 -1.9837E+00   2.3122E+02  0.000E+00  0.000E+00  0.000E+00  9.95183E+02  3.308E+00  4.796E+01  2.933E+00 -2.255E-01





UNSATURATED ZONE PACKAGE VOLUMETRIC BUDGET FOR  TIME STEP    30 STRESS PERIOD    8
  ------------------------------------------------------------------------------



     CUMULATIVE VOLUMES      L**3       RATES FOR THIS TIME STEP      L**3/T
     ------------------                 ------------------------

           IN:                                      IN:
           ---                                      ---
        INFILTRATION =   334311463.5613          INFILTRATION =          88.3416

          OUT:                                     OUT:
          ----                                     ----
              UZF ET =   261848780.2494                UZF ET =          60.8175
        UZF RECHARGE =       73224.0000          UZF RECHARGE =       0.0000E+00

            IN - OUT =    72389459.3120              IN - OUT =          27.5241

          STORAGE:                                 STORAGE:
          --------                                 --------
      STORAGE CHANGE =    72389465.3777        STORAGE CHANGE =          27.5241

 PERCENT DISCREPANCY IS DIFFERENCE BETWEEN IN-OUT MINUS CHANGE IN STORAGE
 DIVIDED BY THE AVERAGE OF IN AND OUT TIMES 100

 PERCENT DISCREPANCY =           0.00     PERCENT DISCREPANCY =          -0.00






1
  VOLUMETRIC BUDGET FOR AGRICULTURAL FIELDS AT  END OF TIME STEP   30, STRESS PERIOD   8
  ------------------------------------------------------------------------------

     CUMULATIVE VOLUMES      L**3       RATES FOR THIS TIME STEP      L**3/T
     ------------------                 ------------------------

           IN:                                      IN:
           ---                                      ---
               AG WELLS  =   318635712.0000                 AG WELLS  =          87.4941
      DIVERSION SEGMENTS =           0.0000        DIVERSION SEGMENTS =           0.0000
           GW IRRIGATION =           0.0000             GW IRRIGATION =           0.0000
           SW IRRIGATION =           0.0000             SW IRRIGATION =           0.0000
        SYSTEM LOSSES GW =           0.0000          SYSTEM LOSSES GW =           0.0000
        SYSTEM LOSSES SW =           0.0000          SYSTEM LOSSES SW =           0.0000

                TOTAL IN =   318635712.0000                  TOTAL IN =          87.4941

          OUT:                                     OUT:
          ----                                     ----
               AG WELLS  =           0.0000                 AG WELLS  =           0.0000
      DIVERSION SEGMENTS =           0.0000        DIVERSION SEGMENTS =           0.0000
           GW IRRIGATION =   318635712.0000             GW IRRIGATION =          87.4941
           SW IRRIGATION =           0.0000             SW IRRIGATION =           0.0000
        SYSTEM LOSSES GW =           0.0000          SYSTEM LOSSES GW =           0.0000
        SYSTEM LOSSES SW =           0.0000          SYSTEM LOSSES SW =           0.0000

               TOTAL OUT =   318635712.0000                 TOTAL OUT =          87.4941

                IN - OUT =           0.0000                  IN - OUT =           0.0000

     PERCENT DISCREPANCY =           0.00         PERCENT DISCREPANCY =           0.00



1
  VOLUMETRIC BUDGET FOR ENTIRE MODEL AT END OF TIME STEP   30, STRESS PERIOD   8
  ------------------------------------------------------------------------------

     CUMULATIVE VOLUMES      L**3       RATES FOR THIS TIME STEP      L**3/T
     ------------------                 ------------------------

           IN:                                      IN:
           ---                                      ---
             STORAGE     =   322758176.0000               STORAGE     =          86.4103
       CONSTANT HEAD     =           0.0000         CONSTANT HEAD     =           0.0000
     HEAD DEP BOUNDS     =     5279910.5000       HEAD DEP BOUNDS     =           0.2855
      STREAM LEAKAGE     =   237080192.0000        STREAM LEAKAGE     =          13.2565
        UZF RECHARGE     =       73223.9531          UZF RECHARGE     =           0.0000
               GW ET     =           0.0000                 GW ET     =           0.0000
     SURFACE LEAKAGE     =           0.0000       SURFACE LEAKAGE     =           0.0000
           AG WELLS      =           0.0000             AG WELLS      =           0.0000

                TOTAL IN =   565191488.0000                  TOTAL IN =          99.9523

          OUT:                                     OUT:
          ----                                     ----
             STORAGE     =    45212196.0000               STORAGE     =           1.1550
       CONSTANT HEAD     =           0.0000         CONSTANT HEAD     =           0.0000
     HEAD DEP BOUNDS     =     5460585.5000       HEAD DEP BOUNDS     =           0.2986
      STREAM LEAKAGE     =   185553888.0000        STREAM LEAKAGE     =           9.4741
        UZF RECHARGE     =           0.0000          UZF RECHARGE     =           0.0000
               GW ET     =    10335111.0000                 GW ET     =           1.5317
     SURFACE LEAKAGE     =           0.0000       SURFACE LEAKAGE     =           0.0000
           AG WELLS      =   318635712.0000             AG WELLS      =          87.4941

               TOTAL OUT =   565197504.0000                 TOTAL OUT =          99.9536

                IN - OUT =       -6016.0000                  IN - OUT =      -1.2970E-03

     PERCENT DISCREPANCY =          -0.00         PERCENT DISCREPANCY =          -0.00






         TIME SUMMARY AT END OF TIME STEP   30 IN STRESS PERIOD    8
                    SECONDS     MINUTES      HOURS       DAYS        YEARS
                    -----------------------------------------------------------
   TIME STEP LENGTH  87667.      1461.1      24.352      1.0147     2.77799E-03
 STRESS PERIOD TIME 2.63000E+06  43833.      730.56      30.440     8.33397E-02
         TOTAL TIME 1.84964E+07 3.08274E+05  5137.9      214.08     0.58612    
1
1
                            STRESS PERIOD NO.    9, LENGTH =   2630000.    
                            -----------------------------------------------

                              NUMBER OF TIME STEPS =    30

                               MULTIPLIER FOR DELT =     1.000

                            INITIAL TIME STEP SIZE =   87666.66    

 REUSING NON-PARAMETER GHB CELLS FROM LAST STRESS PERIOD

      2 GHB CELLS

 REUSING STREAM SEGMENT DATA FROM LAST STRESS PERIOD



            AREAL INFILTRATION RATE
 READING ON UNIT   19 WITH FORMAT: (FREE)              

            1           2           3           4           5           6           7           8           9          10
 ........................................................................................................................
   1   1.0000E-10  2.0000E-10   0.000       0.000       0.000       0.000       0.000       0.000       0.000       0.000    
   2   2.0000E-10  1.0000E-10  2.0000E-10   0.000       0.000      8.0000E-10  8.0000E-10  5.0000E-10   0.000       0.000    
   3    0.000      5.0000E-10  1.0000E-10  1.0000E-10  8.0000E-10  8.0000E-10  5.0000E-10  5.0000E-10   0.000       0.000    
   4   8.0000E-10  5.0000E-10  1.0000E-10  1.0000E-10  1.0000E-10  1.0000E-10  1.0000E-10  1.0000E-10  2.0000E-10   0.000    
   5   8.0000E-10  5.0000E-10  1.0000E-10  1.0000E-10  1.0000E-10  1.0000E-10  1.0000E-10  1.0000E-10  1.0000E-10  1.0000E-10
   6   8.0000E-10  5.0000E-10  5.0000E-10  2.0000E-10  2.0000E-10  1.0000E-10  1.0000E-10  1.0000E-10  1.0000E-10  5.0000E-10
   7   8.0000E-10  5.0000E-10  5.0000E-10  2.0000E-10  2.0000E-10  1.0000E-10  1.0000E-10  2.0000E-10  2.0000E-10   0.000    
   8    0.000      5.0000E-10  5.0000E-10  2.0000E-10  2.0000E-10  1.0000E-10  1.0000E-10  2.0000E-10  5.0000E-10   0.000    
   9    0.000      5.0000E-10  5.0000E-10  2.0000E-10  2.0000E-10  1.0000E-10  1.0000E-10  2.0000E-10  5.0000E-10   0.000    
  10    0.000      5.0000E-10  5.0000E-10  2.0000E-10  2.0000E-10  1.0000E-10  1.0000E-10  2.0000E-10  5.0000E-10  8.0000E-10
  11    0.000      1.0000E-10  1.0000E-10  1.0000E-10  1.0000E-10  1.0000E-10  1.0000E-10  2.0000E-10  5.0000E-10   0.000    
  12   1.0000E-10  1.0000E-10  1.0000E-10  1.0000E-10  1.0000E-10  1.0000E-10  1.0000E-10  1.0000E-10  2.0000E-10   0.000    
  13   1.0000E-10  1.0000E-10  2.0000E-10  2.0000E-10  2.0000E-10  2.0000E-10  2.0000E-10  1.0000E-10  1.0000E-10   0.000    
  14    0.000      2.0000E-10  5.0000E-10  5.0000E-10  5.0000E-10  5.0000E-10  5.0000E-10  2.0000E-10  1.0000E-10   0.000    
  15    0.000       0.000      8.0000E-10  8.0000E-10  8.0000E-10  8.0000E-10   0.000       0.000       0.000       0.000    

                  ET RATE =  3.250000E-07

 USING ET EXTINCTION DEPTH FROM PREVIOUS STRESS PERIOD. CURRENT PERIOD IS:       9

 USING EXTINCTION WATER CONTENT FROM PREVIOUS STRESS PERIOD. CURRENT PERIOD IS:       9

 USING AIR ENTRY PRESSURE FROM PREVIOUS STRESS PERIOD. CURRENT PERIOD IS:       9

 USING ROOT PRESSURE HEAD FROM PREVIOUS STRESS PERIOD. CURRENT PERIOD IS:       9

 USING ROOT ACTIVITY FROM PREVIOUS STRESS PERIOD. CURRENT PERIOD IS:       9

 PROCESSING AG STRESS PERIOD DATA

 READING AG STRESS PERIOD DATA

 READING IRRIGATION WELL

 END PROCESSING AG STRESS PERIOD DATA OPTIONS
 
 SOLVING FOR HEAD 
                                                   Max.-Head-Change                         Max.-Flux-Residual
  Residual-Control   Outer-Iter.   Inner-Iter.     Column Row Layer    Maximum-Head-Change  Column Row Layer    Maximum-Flux-Residual          L2-NORM 
          0                 1           2             4    7     1      -0.7143615427E-01       4    7    1        -0.3784407703E+01      0.1020362106E+02
          0                 2           2             4    7     1       0.6948632438E-02       4    7    1         0.3784298599E+00      0.1020314908E+01
          0                 3           2             4    7     1      -0.4731776478E-03       4    7    1        -0.2649020486E-01      0.7141911062E-01
          0                 4           1             4    7     1       0.1882817350E-04       4    7    1         0.1083450404E-02      0.2920826292E-02

    ------------------------------------------------
       NWT REQUIRED            4 OUTER ITERATIONS 
       AND A TOTAL OF          7 INNER ITERATIONS.
    ------------------------------------------------

 NO OUTPUT CONTROL FOR STRESS PERIOD    9   TIME STEP    1
 
 SOLVING FOR HEAD 
                                                   Max.-Head-Change                         Max.-Flux-Residual
  Residual-Control   Outer-Iter.   Inner-Iter.     Column Row Layer    Maximum-Head-Change  Column Row Layer    Maximum-Flux-Residual          L2-NORM 
          0                 1           2             4    7     1      -0.7011036907E-01       4    7    1        -0.3711656473E+01      0.1007903645E+02
          0                 2           2             4    7     1       0.6819641276E-02       4    7    1         0.3711553423E+00      0.1007831163E+01
          0                 3           2             4    7     1      -0.4643937415E-03       4    7    1        -0.2598098270E-01      0.7054574146E-01
          0                 4           1             4    7     1       0.1847865439E-04       4    7    1         0.1062623224E-02      0.2885174341E-02

    ------------------------------------------------
       NWT REQUIRED            4 OUTER ITERATIONS 
       AND A TOTAL OF          7 INNER ITERATIONS.
    ------------------------------------------------

 NO OUTPUT CONTROL FOR STRESS PERIOD    9   TIME STEP    2
 
 SOLVING FOR HEAD 
                                                   Max.-Head-Change                         Max.-Flux-Residual
  Residual-Control   Outer-Iter.   Inner-Iter.     Column Row Layer    Maximum-Head-Change  Column Row Layer    Maximum-Flux-Residual          L2-NORM 
          0                 1           2             4    7     1      -0.6885526337E-01       4    7    1        -0.3642770417E+01      0.9963771855E+01
          0                 2           2             4    7     1       0.6697599037E-02       4    7    1         0.3642673041E+00      0.9963446215E+00
          0                 3           2             4    7     1      -0.4560830385E-03       4    7    1        -0.2549881442E-01      0.6974232386E-01
          0                 4           1             4    7     1       0.1814796383E-04       4    7    1         0.1042902534E-02      0.2852332971E-02

    ------------------------------------------------
       NWT REQUIRED            4 OUTER ITERATIONS 
       AND A TOTAL OF          7 INNER ITERATIONS.
    ------------------------------------------------

 NO OUTPUT CONTROL FOR STRESS PERIOD    9   TIME STEP    3
 
 SOLVING FOR HEAD 
                                                   Max.-Head-Change                         Max.-Flux-Residual
  Residual-Control   Outer-Iter.   Inner-Iter.     Column Row Layer    Maximum-Head-Change  Column Row Layer    Maximum-Flux-Residual          L2-NORM 
          0                 1           2             4    7     1      -0.6766698944E-01       4    7    1        -0.3577559709E+01      0.9858266381E+01
          0                 2           2             4    7     1       0.6582019912E-02       4    7    1         0.3577467645E+00      0.9857997901E+00
          0                 3           2             4    7     1      -0.4482124547E-03       4    7    1        -0.2504237142E-01      0.6900460612E-01
          0                 4           1             4    7     1       0.1783478636E-04       4    7    1         0.1024234015E-02      0.2822167659E-02

    ------------------------------------------------
       NWT REQUIRED            4 OUTER ITERATIONS 
       AND A TOTAL OF          7 INNER ITERATIONS.
    ------------------------------------------------

 NO OUTPUT CONTROL FOR STRESS PERIOD    9   TIME STEP    4
 
 SOLVING FOR HEAD 
                                                   Max.-Head-Change                         Max.-Flux-Residual
  Residual-Control   Outer-Iter.   Inner-Iter.     Column Row Layer    Maximum-Head-Change  Column Row Layer    Maximum-Flux-Residual          L2-NORM 
          0                 1           2             4    7     1      -0.6654175676E-01       4    7    1        -0.3515816257E+01      0.9761264808E+01
          0                 2           2             4    7     1       0.6472572517E-02       4    7    1         0.3515729167E+00      0.9761231106E+00
          0                 3           2             4    7     1      -0.4407594241E-03       4    7    1        -0.2461019720E-01      0.6832755218E-01
          0                 4           1             4    7     1       0.1753822354E-04       4    7    1         0.1006558081E-02      0.2794537703E-02

    ------------------------------------------------
       NWT REQUIRED            4 OUTER ITERATIONS 
       AND A TOTAL OF          7 INNER ITERATIONS.
    ------------------------------------------------

 NO OUTPUT CONTROL FOR STRESS PERIOD    9   TIME STEP    5
 
 SOLVING FOR HEAD 
                                                   Max.-Head-Change                         Max.-Flux-Residual
  Residual-Control   Outer-Iter.   Inner-Iter.     Column Row Layer    Maximum-Head-Change  Column Row Layer    Maximum-Flux-Residual          L2-NORM 
          0                 1           2             4    7     1      -0.6547604668E-01       4    7    1        -0.3457348794E+01      0.9671798420E+01
          0                 2           2             4    7     1       0.6368914582E-02       4    7    1         0.3457266362E+00      0.9671509667E+00
          0                 3           2             4    7     1      -0.4337006387E-03       4    7    1        -0.2420095297E-01      0.6769972044E-01
          0                 4           1             4    7     1       0.1725734869E-04       4    7    1         0.9898200021E-03      0.2768854660E-02

    ------------------------------------------------
       NWT REQUIRED            4 OUTER ITERATIONS 
       AND A TOTAL OF          7 INNER ITERATIONS.
    ------------------------------------------------

 NO OUTPUT CONTROL FOR STRESS PERIOD    9   TIME STEP    6
 
 SOLVING FOR HEAD 
                                                   Max.-Head-Change                         Max.-Flux-Residual
  Residual-Control   Outer-Iter.   Inner-Iter.     Column Row Layer    Maximum-Head-Change  Column Row Layer    Maximum-Flux-Residual          L2-NORM 
          0                 1           2             4    7     1      -0.6446650633E-01       4    7    1        -0.3401974877E+01      0.9588956723E+01
          0                 2           2             4    7     1       0.6247390434E-02       4    7    1         0.3386856988E+00      0.9587554664E+00
          0                 3           2             4    7     1      -0.4254251100E-03       4    7    1        -0.2370807455E-01      0.6711218979E-01
          0                 4           1             4    7     1       0.1692805865E-04       4    7    1         0.9696613081E-03      0.2744842279E-02

    ------------------------------------------------
       NWT REQUIRED            4 OUTER ITERATIONS 
       AND A TOTAL OF          7 INNER ITERATIONS.
    ------------------------------------------------

 NO OUTPUT CONTROL FOR STRESS PERIOD    9   TIME STEP    7
 
 SOLVING FOR HEAD 
                                                   Max.-Head-Change                         Max.-Flux-Residual
  Residual-Control   Outer-Iter.   Inner-Iter.     Column Row Layer    Maximum-Head-Change  Column Row Layer    Maximum-Flux-Residual          L2-NORM 
          0                 1           2             4    7     1      -0.6356399320E-01       4    7    1        -0.3350771437E+01      0.9512227551E+01
          0                 2           2             4    7     1       0.6182945847E-02       4    7    1         0.3350704466E+00      0.9512083121E+00
          0                 3           2             4    7     1      -0.4210366425E-03       4    7    1        -0.2345500476E-01      0.6658401921E-01
          0                 4           1             4    7     1       0.1675343737E-04       4    7    1         0.9593107236E-03      0.2723247189E-02

    ------------------------------------------------
       NWT REQUIRED            4 OUTER ITERATIONS 
       AND A TOTAL OF          7 INNER ITERATIONS.
    ------------------------------------------------

 NO OUTPUT CONTROL FOR STRESS PERIOD    9   TIME STEP    8
 
 SOLVING FOR HEAD 
                                                   Max.-Head-Change                         Max.-Flux-Residual
  Residual-Control   Outer-Iter.   Inner-Iter.     Column Row Layer    Maximum-Head-Change  Column Row Layer    Maximum-Flux-Residual          L2-NORM 
          0                 1           2             4    7     1      -0.6268390475E-01       4    7    1        -0.3302622503E+01      0.9440860165E+01
          0                 2           2             4    7     1       0.6097341484E-02       4    7    1         0.3302558517E+00      0.9440731578E+00
          0                 3           2             4    7     1      -0.4152072615E-03       4    7    1        -0.2311798015E-01      0.6608466855E-01
          0                 4           1             4    7     1       0.1652148104E-04       4    7    1         0.9455264196E-03      0.2702821750E-02

    ------------------------------------------------
       NWT REQUIRED            4 OUTER ITERATIONS 
       AND A TOTAL OF          7 INNER ITERATIONS.
    ------------------------------------------------

 NO OUTPUT CONTROL FOR STRESS PERIOD    9   TIME STEP    9
 
 SOLVING FOR HEAD 
                                                   Max.-Head-Change                         Max.-Flux-Residual
  Residual-Control   Outer-Iter.   Inner-Iter.     Column Row Layer    Maximum-Head-Change  Column Row Layer    Maximum-Flux-Residual          L2-NORM 
          0                 1           2             4    7     1      -0.6184795184E-01       4    7    1        -0.3256902242E+01      0.9374263054E+01
          0                 2           2             4    7     1       0.6016030093E-02       4    7    1         0.3256841088E+00      0.9374145539E+00
          0                 3           2             4    7     1      -0.4096702181E-03       4    7    1        -0.2279795534E-01      0.6561865625E-01
          0                 4           1             4    7     1       0.1630115732E-04       4    7    1         0.9324374121E-03      0.2683804743E-02

    ------------------------------------------------
       NWT REQUIRED            4 OUTER ITERATIONS 
       AND A TOTAL OF          7 INNER ITERATIONS.
    ------------------------------------------------

 NO OUTPUT CONTROL FOR STRESS PERIOD    9   TIME STEP   10
 
 SOLVING FOR HEAD 
                                                   Max.-Head-Change                         Max.-Flux-Residual
  Residual-Control   Outer-Iter.   Inner-Iter.     Column Row Layer    Maximum-Head-Change  Column Row Layer    Maximum-Flux-Residual          L2-NORM 
          0                 1           2             4    7     1      -0.6105343220E-01       4    7    1        -0.3213463167E+01      0.9311952739E+01
          0                 2           2             4    7     1       0.5938748822E-02       4    7    1         0.3213404699E+00      0.9311848220E+00
          0                 3           2             4    7     1      -0.4044076129E-03       4    7    1        -0.2249389794E-01      0.6518264018E-01
          0                 4           1             4    7     1       0.1609175357E-04       4    7    1         0.9200014651E-03      0.2665947831E-02

    ------------------------------------------------
       NWT REQUIRED            4 OUTER ITERATIONS 
       AND A TOTAL OF          7 INNER ITERATIONS.
    ------------------------------------------------

 NO OUTPUT CONTROL FOR STRESS PERIOD    9   TIME STEP   11
 
 SOLVING FOR HEAD 
                                                   Max.-Head-Change                         Max.-Flux-Residual
  Residual-Control   Outer-Iter.   Inner-Iter.     Column Row Layer    Maximum-Head-Change  Column Row Layer    Maximum-Flux-Residual          L2-NORM 
          0                 1           2             4    7     1      -0.6029817471E-01       4    7    1        -0.3172186942E+01      0.9253478330E+01
          0                 2           2             4    7     1       0.5865286490E-02       4    7    1         0.3172131017E+00      0.9253383127E+00
          0                 3           2             4    7     1      -0.3994050642E-03       4    7    1        -0.2220497961E-01      0.6477343267E-01
          0                 4           1             4    7     1       0.1589269749E-04       4    7    1         0.9081846795E-03      0.2649215113E-02

    ------------------------------------------------
       NWT REQUIRED            4 OUTER ITERATIONS 
       AND A TOTAL OF          7 INNER ITERATIONS.
    ------------------------------------------------

 NO OUTPUT CONTROL FOR STRESS PERIOD    9   TIME STEP   12
 
 SOLVING FOR HEAD 
                                                   Max.-Head-Change                         Max.-Flux-Residual
  Residual-Control   Outer-Iter.   Inner-Iter.     Column Row Layer    Maximum-Head-Change  Column Row Layer    Maximum-Flux-Residual          L2-NORM 
          0                 1           2             4    7     1      -0.5957972091E-01       4    7    1        -0.3132939218E+01      0.9198455183E+01
          0                 2           2             4    7     1       0.5795403963E-02       4    7    1         0.3132885702E+00      0.9198368050E+00
          0                 3           2             4    7     1      -0.3946462898E-03       4    7    1        -0.2193026002E-01      0.6438836383E-01
          0                 4           1             4    7     1       0.1570334183E-04       4    7    1         0.8969486491E-03      0.2633465947E-02

    ------------------------------------------------
       NWT REQUIRED            4 OUTER ITERATIONS 
       AND A TOTAL OF          7 INNER ITERATIONS.
    ------------------------------------------------

 NO OUTPUT CONTROL FOR STRESS PERIOD    9   TIME STEP   13
 
 SOLVING FOR HEAD 
                                                   Max.-Head-Change                         Max.-Flux-Residual
  Residual-Control   Outer-Iter.   Inner-Iter.     Column Row Layer    Maximum-Head-Change  Column Row Layer    Maximum-Flux-Residual          L2-NORM 
          0                 1           2             4    7     1      -0.5889600880E-01       4    7    1        -0.3095607040E+01      0.9146545785E+01
          0                 2           2             4    7     1       0.5728900673E-02       4    7    1         0.3095555802E+00      0.9146465300E+00
          0                 3           2             4    7     1      -0.3901176304E-03       4    7    1        -0.2166894845E-01      0.6402508478E-01
          0                 4           1             4    7     1       0.1552314227E-04       4    7    1         0.8862610075E-03      0.2618608004E-02

    ------------------------------------------------
       NWT REQUIRED            4 OUTER ITERATIONS 
       AND A TOTAL OF          7 INNER ITERATIONS.
    ------------------------------------------------

 NO OUTPUT CONTROL FOR STRESS PERIOD    9   TIME STEP   14
 
 SOLVING FOR HEAD 
                                                   Max.-Head-Change                         Max.-Flux-Residual
  Residual-Control   Outer-Iter.   Inner-Iter.     Column Row Layer    Maximum-Head-Change  Column Row Layer    Maximum-Flux-Residual          L2-NORM 
          0                 1           2             4    7     1      -0.5824508710E-01       4    7    1        -0.3060083488E+01      0.9097429497E+01
          0                 2           2             4    7     1       0.5665586821E-02       4    7    1         0.3060034406E+00      0.9097355031E+00
          0                 3           2             4    7     1      -0.3858061620E-03       4    7    1        -0.2142029654E-01      0.6368134684E-01
          0                 4           1             4    7     1       0.1535158522E-04       4    7    1         0.8760911417E-03      0.2604543126E-02

    ------------------------------------------------
       NWT REQUIRED            4 OUTER ITERATIONS 
       AND A TOTAL OF          7 INNER ITERATIONS.
    ------------------------------------------------

 NO OUTPUT CONTROL FOR STRESS PERIOD    9   TIME STEP   15
 
 SOLVING FOR HEAD 
                                                   Max.-Head-Change                         Max.-Flux-Residual
  Residual-Control   Outer-Iter.   Inner-Iter.     Column Row Layer    Maximum-Head-Change  Column Row Layer    Maximum-Flux-Residual          L2-NORM 
          0                 1           2             4    7     1      -0.5762510330E-01       4    7    1        -0.3026267388E+01      0.9050852939E+01
          0                 2           2             4    7     1       0.5605284408E-02       4    7    1         0.3026220343E+00      0.9052306549E+00
          0                 3           2             4    7     1      -0.3816997626E-03       4    7    1        -0.2118359608E-01      0.6336601783E-01
          0                 4           1             4    7     1       0.1518818749E-04       4    7    1         0.8664100753E-03      0.2591662264E-02

    ------------------------------------------------
       NWT REQUIRED            4 OUTER ITERATIONS 
       AND A TOTAL OF          7 INNER ITERATIONS.
    ------------------------------------------------

 NO OUTPUT CONTROL FOR STRESS PERIOD    9   TIME STEP   16
 
 SOLVING FOR HEAD 
                                                   Max.-Head-Change                         Max.-Flux-Residual
  Residual-Control   Outer-Iter.   Inner-Iter.     Column Row Layer    Maximum-Head-Change  Column Row Layer    Maximum-Flux-Residual          L2-NORM 
          0                 1           2             4    7     1      -0.5703403868E-01       4    7    1        -0.2994048061E+01      0.9006420145E+01
          0                 2           2             4    7     1       0.5547790502E-02       4    7    1         0.2994002941E+00      0.9006357662E+00
          0                 3           2             4    7     1      -0.3777846137E-03       4    7    1        -0.2095807232E-01      0.6304441463E-01
          0                 4           1             4    7     1       0.1503240063E-04       4    7    1         0.8571861658E-03      0.2578515925E-02

    ------------------------------------------------
       NWT REQUIRED            4 OUTER ITERATIONS 
       AND A TOTAL OF          7 INNER ITERATIONS.
    ------------------------------------------------

 NO OUTPUT CONTROL FOR STRESS PERIOD    9   TIME STEP   17
 
 SOLVING FOR HEAD 
                                                   Max.-Head-Change                         Max.-Flux-Residual
  Residual-Control   Outer-Iter.   Inner-Iter.     Column Row Layer    Maximum-Head-Change  Column Row Layer    Maximum-Flux-Residual          L2-NORM 
          0                 1           2             4    7     1      -0.5647038970E-01       4    7    1        -0.2963342946E+01      0.8964034849E+01
          0                 2           2             4    7     1       0.5492965428E-02       4    7    1         0.2963299643E+00      0.8963976214E+00
          0                 3           2             4    7     1      -0.3740512038E-03       4    7    1        -0.2074314742E-01      0.6274777057E-01
          0                 4           1             4    7     1       0.1488384446E-04       4    7    1         0.8483957179E-03      0.2566382080E-02

    ------------------------------------------------
       NWT REQUIRED            4 OUTER ITERATIONS 
       AND A TOTAL OF          7 INNER ITERATIONS.
    ------------------------------------------------

 NO OUTPUT CONTROL FOR STRESS PERIOD    9   TIME STEP   18
 
 SOLVING FOR HEAD 
                                                   Max.-Head-Change                         Max.-Flux-Residual
  Residual-Control   Outer-Iter.   Inner-Iter.     Column Row Layer    Maximum-Head-Change  Column Row Layer    Maximum-Flux-Residual          L2-NORM 
          0                 1           2             4    7     1      -0.5593233937E-01       4    7    1        -0.2934051976E+01      0.8923538735E+01
          0                 2           2             4    7     1       0.5440630260E-02       4    7    1         0.2934010388E+00      0.8923483354E+00
          0                 3           2             4    7     1      -0.3704873491E-03       4    7    1        -0.2053812094E-01      0.6246432959E-01
          0                 4           1             4    7     1       0.1474203558E-04       4    7    1         0.8400101326E-03      0.2554782454E-02

    ------------------------------------------------
       NWT REQUIRED            4 OUTER ITERATIONS 
       AND A TOTAL OF          7 INNER ITERATIONS.
    ------------------------------------------------

 NO OUTPUT CONTROL FOR STRESS PERIOD    9   TIME STEP   19
 
 SOLVING FOR HEAD 
                                                   Max.-Head-Change                         Max.-Flux-Residual
  Residual-Control   Outer-Iter.   Inner-Iter.     Column Row Layer    Maximum-Head-Change  Column Row Layer    Maximum-Flux-Residual          L2-NORM 
          0                 1           2             4    7     1      -0.5541843902E-01       4    7    1        -0.2906095559E+01      0.8884759059E+01
          0                 2           2             4    7     1       0.5390644088E-02       4    7    1         0.2906055589E+00      0.8884706396E+00
          0                 3           2             4    7     1      -0.3670834534E-03       4    7    1        -0.2034243573E-01      0.6219289023E-01
          0                 4           1             4    7     1       0.1460659152E-04       4    7    1         0.8320066045E-03      0.2543688378E-02

    ------------------------------------------------
       NWT REQUIRED            4 OUTER ITERATIONS 
       AND A TOTAL OF          7 INNER ITERATIONS.
    ------------------------------------------------

 NO OUTPUT CONTROL FOR STRESS PERIOD    9   TIME STEP   20
 
 SOLVING FOR HEAD 
                                                   Max.-Head-Change                         Max.-Flux-Residual
  Residual-Control   Outer-Iter.   Inner-Iter.     Column Row Layer    Maximum-Head-Change  Column Row Layer    Maximum-Flux-Residual          L2-NORM 
          0                 1           2             4    7     1      -0.5492719119E-01       4    7    1        -0.2879391330E+01      0.8847548394E+01
          0                 2           2             4    7     1       0.5342861260E-02       4    7    1         0.2879352887E+00      0.8847498349E+00
          0                 3           2             4    7     1      -0.3638295987E-03       4    7    1        -0.2015551530E-01      0.6193246003E-01
          0                 4           1             4    7     1       0.1447711787E-04       4    7    1         0.8243615573E-03      0.2533034322E-02

    ------------------------------------------------
       NWT REQUIRED            4 OUTER ITERATIONS 
       AND A TOTAL OF          7 INNER ITERATIONS.
    ------------------------------------------------

 NO OUTPUT CONTROL FOR STRESS PERIOD    9   TIME STEP   21
 
 SOLVING FOR HEAD 
                                                   Max.-Head-Change                         Max.-Flux-Residual
  Residual-Control   Outer-Iter.   Inner-Iter.     Column Row Layer    Maximum-Head-Change  Column Row Layer    Maximum-Flux-Residual          L2-NORM 
          0                 1           2             4    7     1      -0.5445731588E-01       4    7    1        -0.2853868895E+01      0.8811753113E+01
          0                 2           2             4    7     1       0.5297157270E-02       4    7    1         0.2853831892E+00      0.8811705349E+00
          0                 3           2             4    7     1      -0.3607173059E-03       4    7    1        -0.1997686688E-01      0.6168191361E-01
          0                 4           1             4    7     1       0.1435327661E-04       4    7    1         0.8170548231E-03      0.2522787284E-02

    ------------------------------------------------
       NWT REQUIRED            4 OUTER ITERATIONS 
       AND A TOTAL OF          7 INNER ITERATIONS.
    ------------------------------------------------

 NO OUTPUT CONTROL FOR STRESS PERIOD    9   TIME STEP   22
 
 SOLVING FOR HEAD 
                                                   Max.-Head-Change                         Max.-Flux-Residual
  Residual-Control   Outer-Iter.   Inner-Iter.     Column Row Layer    Maximum-Head-Change  Column Row Layer    Maximum-Flux-Residual          L2-NORM 
          0                 1           2             4    7     1      -0.5400747745E-01       4    7    1        -0.2829454635E+01      0.8777260299E+01
          0                 2           2             4    7     1       0.5253402205E-02       4    7    1         0.2829418989E+00      0.8777214563E+00
          0                 3           2             4    7     1      -0.3577377294E-03       4    7    1        -0.1980597520E-01      0.6144048673E-01
          0                 4           1             4    7     1       0.1423471694E-04       4    7    1         0.8100653624E-03      0.2512917103E-02

    ------------------------------------------------
       NWT REQUIRED            4 OUTER ITERATIONS 
       AND A TOTAL OF          7 INNER ITERATIONS.
    ------------------------------------------------

 NO OUTPUT CONTROL FOR STRESS PERIOD    9   TIME STEP   23
 
 SOLVING FOR HEAD 
                                                   Max.-Head-Change                         Max.-Flux-Residual
  Residual-Control   Outer-Iter.   Inner-Iter.     Column Row Layer    Maximum-Head-Change  Column Row Layer    Maximum-Flux-Residual          L2-NORM 
          0                 1           2             4    7     1      -0.5357654989E-01       4    7    1        -0.2806086544E+01      0.8743958121E+01
          0                 2           2             4    7     1       0.5211486540E-02       4    7    1         0.2806052177E+00      0.8743914167E+00
          0                 3           2             4    7     1      -0.3548834100E-03       4    7    1        -0.1964240624E-01      0.6120739738E-01
          0                 4           1             4    7     1       0.1412114103E-04       4    7    1         0.8033753809E-03      0.2503392576E-02

    ------------------------------------------------
       NWT REQUIRED            4 OUTER ITERATIONS 
       AND A TOTAL OF          7 INNER ITERATIONS.
    ------------------------------------------------

 NO OUTPUT CONTROL FOR STRESS PERIOD    9   TIME STEP   24
 
 SOLVING FOR HEAD 
                                                   Max.-Head-Change                         Max.-Flux-Residual
  Residual-Control   Outer-Iter.   Inner-Iter.     Column Row Layer    Maximum-Head-Change  Column Row Layer    Maximum-Flux-Residual          L2-NORM 
          0                 1           2             4    7     1      -0.5316321470E-01       4    7    1        -0.2783691745E+01      0.8711748118E+01
          0                 2           2             4    7     1       0.5171282029E-02       4    7    1         0.2783658583E+00      0.8711705773E+00
          0                 3           2             4    7     1      -0.3521456149E-03       4    7    1        -0.1948564987E-01      0.6098193951E-01
          0                 4           1             4    7     1       0.1401220142E-04       4    7    1         0.7969640480E-03      0.2494157912E-02

    ------------------------------------------------
       NWT REQUIRED            4 OUTER ITERATIONS 
       AND A TOTAL OF          7 INNER ITERATIONS.
    ------------------------------------------------

 NO OUTPUT CONTROL FOR STRESS PERIOD    9   TIME STEP   25
 
 SOLVING FOR HEAD 
                                                   Max.-Head-Change                         Max.-Flux-Residual
  Residual-Control   Outer-Iter.   Inner-Iter.     Column Row Layer    Maximum-Head-Change  Column Row Layer    Maximum-Flux-Residual          L2-NORM 
          0                 1           2             4    7     1      -0.5276649528E-01       4    7    1        -0.2762216365E+01      0.8680547705E+01
          0                 2           2             4    7     1       0.5132693681E-02       4    7    1         0.2762184339E+00      0.8680506765E+00
          0                 3           2             4    7     1      -0.3495178756E-03       4    7    1        -0.1933532904E-01      0.6076356378E-01
          0                 4           1             4    7     1       0.1390764139E-04       4    7    1         0.7908159143E-03      0.2485233548E-02

    ------------------------------------------------
       NWT REQUIRED            4 OUTER ITERATIONS 
       AND A TOTAL OF          7 INNER ITERATIONS.
    ------------------------------------------------

 NO OUTPUT CONTROL FOR STRESS PERIOD    9   TIME STEP   26
 
 SOLVING FOR HEAD 
                                                   Max.-Head-Change                         Max.-Flux-Residual
  Residual-Control   Outer-Iter.   Inner-Iter.     Column Row Layer    Maximum-Head-Change  Column Row Layer    Maximum-Flux-Residual          L2-NORM 
          0                 1           2             4    7     1      -0.5238533958E-01       4    7    1        -0.2741602523E+01      0.8650268212E+01
          0                 2           2             4    7     1       0.5095619164E-02       4    7    1         0.2741571567E+00      0.8650228602E+00
          0                 3           2             4    7     1      -0.3469932237E-03       4    7    1        -0.1919103856E-01      0.6055161789E-01
          0                 4           1             4    7     1       0.1380718334E-04       4    7    1         0.7849144547E-03      0.2476564440E-02

    ------------------------------------------------
       NWT REQUIRED            4 OUTER ITERATIONS 
       AND A TOTAL OF          7 INNER ITERATIONS.
    ------------------------------------------------

 NO OUTPUT CONTROL FOR STRESS PERIOD    9   TIME STEP   27
 
 SOLVING FOR HEAD 
                                                   Max.-Head-Change                         Max.-Flux-Residual
  Residual-Control   Outer-Iter.   Inner-Iter.     Column Row Layer    Maximum-Head-Change  Column Row Layer    Maximum-Flux-Residual          L2-NORM 
          0                 1           2             3    7     1      -0.5212343527E-01       4    7    1        -0.2721795669E+01      0.8620840791E+01
          0                 2           2             3    7     1       0.5070149445E-02       4    7    1         0.2721765720E+00      0.8620802346E+00
          0                 3           2             3    7     1      -0.3452587666E-03       4    7    1        -0.1905239660E-01      0.6034562852E-01
          0                 4           1             3    7     1       0.1373819371E-04       4    7    1         0.7792439847E-03      0.2468135555E-02

    ------------------------------------------------
       NWT REQUIRED            4 OUTER ITERATIONS 
       AND A TOTAL OF          7 INNER ITERATIONS.
    ------------------------------------------------

 NO OUTPUT CONTROL FOR STRESS PERIOD    9   TIME STEP   28
 
 SOLVING FOR HEAD 
                                                   Max.-Head-Change                         Max.-Flux-Residual
  Residual-Control   Outer-Iter.   Inner-Iter.     Column Row Layer    Maximum-Head-Change  Column Row Layer    Maximum-Flux-Residual          L2-NORM 
          0                 1           2             3    7     1      -0.5187811387E-01       4    7    1        -0.2702751985E+01      0.8592206475E+01
          0                 2           2             3    7     1       0.5046286626E-02       4    7    1         0.2702722986E+00      0.8592169100E+00
          0                 3           2             3    7     1      -0.3436337947E-03       4    7    1        -0.1891909653E-01      0.6014520615E-01
          0                 4           1             3    7     1       0.1367353436E-04       4    7    1         0.7737920062E-03      0.2459940484E-02

    ------------------------------------------------
       NWT REQUIRED            4 OUTER ITERATIONS 
       AND A TOTAL OF          7 INNER ITERATIONS.
    ------------------------------------------------

 NO OUTPUT CONTROL FOR STRESS PERIOD    9   TIME STEP   29
 
 SOLVING FOR HEAD 
                                                   Max.-Head-Change                         Max.-Flux-Residual
  Residual-Control   Outer-Iter.   Inner-Iter.     Column Row Layer    Maximum-Head-Change  Column Row Layer    Maximum-Flux-Residual          L2-NORM 
          0                 1           2             3    7     1      -0.5163436625E-01       4    7    1        -0.2684415908E+01      0.8564299881E+01
          0                 2           2             3    7     1       0.5022576906E-02       4    7    1         0.2684387803E+00      0.8564263472E+00
          0                 3           2             3    7     1      -0.3420192485E-03       4    7    1        -0.1879074932E-01      0.5994987077E-01
          0                 4           1             3    7     1       0.1360928994E-04       4    7    1         0.7685425978E-03      0.2451953765E-02

    ------------------------------------------------
       NWT REQUIRED            4 OUTER ITERATIONS 
       AND A TOTAL OF          7 INNER ITERATIONS.
    ------------------------------------------------

 NO OUTPUT CONTROL FOR STRESS PERIOD    9   TIME STEP   30



 STREAM LISTING     PERIOD      9   STEP       30

 LAYER ROW COL. STREAM  RCH.  FLOW INTO     FLOW TO   FLOW OUT OF   OVRLND.     DIRECT     STREAM       STREAM     STREAM     STREAM   STREAMBED  STREAMBED
                SEG.NO.  NO.  STRM. RCH.    AQUIFER    STRM. RCH.    RUNOFF     PRECIP       ET          HEAD       DEPTH      WIDTH   CONDCTNC.   GRADIENT

   1    1    1     1     1    6.1000E+01  3.7546E-01   6.0624E+01  0.000E+00  0.000E+00  0.000E+00  1.09459E+03  1.538E+00  1.839E+01  8.274E-02  1.513E+00
   1    2    2     1     2    6.0624E+01  5.8146E-01   6.0043E+01  0.000E+00  0.000E+00  0.000E+00  1.08959E+03  1.532E+00  1.833E+01  1.283E-01  1.511E+00
   1    3    3     1     3    6.0043E+01  4.9588E-01   5.9547E+01  0.000E+00  0.000E+00  0.000E+00  1.08394E+03  1.525E+00  1.826E+01  1.096E-01  1.508E+00
   1    3    4     1     4    5.9547E+01  4.5664E-01   5.9090E+01  0.000E+00  0.000E+00  0.000E+00  1.07893E+03  1.519E+00  1.821E+01  1.010E-01  1.506E+00
   1    4    5     2     1    5.7090E+01  3.8827E-01   5.6702E+01  0.000E+00  0.000E+00  0.000E+00  1.07391E+03  1.978E+00  1.200E+01  7.800E-02  1.659E+00
   1    5    6     2     2    5.6702E+01  2.9824E-01   5.6404E+01  0.000E+00  0.000E+00  0.000E+00  1.06848E+03  1.971E+00  1.200E+01  6.000E-02  1.657E+00
   1    6    6     2     3    5.6404E+01  2.9787E-01   5.6106E+01  0.000E+00  0.000E+00  0.000E+00  1.06376E+03  1.964E+00  1.200E+01  6.000E-02  1.655E+00
   1    7    6     2     4    5.6106E+01  2.9749E-01   5.5808E+01  0.000E+00  0.000E+00  0.000E+00  1.05903E+03  1.958E+00  1.200E+01  6.000E-02  1.653E+00
   1    8    6     2     5    5.5808E+01  2.9712E-01   5.5511E+01  0.000E+00  0.000E+00  0.000E+00  1.05431E+03  1.952E+00  1.200E+01  6.000E-02  1.651E+00
   1    3    5     3     1    2.0000E+00  2.8252E-01   1.7175E+00  0.000E+00  0.000E+00  0.000E+00  1.07555E+03  1.909E+00  9.636E+00  7.227E-02  1.955E+00
   1    3    6     3     2    1.7175E+00  2.4905E-01   1.4684E+00  0.000E+00  0.000E+00  0.000E+00  1.07264E+03  1.727E+00  8.909E+00  6.682E-02  1.864E+00
   1    3    7     3     3    1.4684E+00  1.9718E-01   1.2712E+00  0.000E+00  0.000E+00  0.000E+00  1.06987E+03  1.555E+00  8.218E+00  5.547E-02  1.777E+00
   1    4    8     3     4    1.2712E+00  2.2567E-01   1.0456E+00  0.000E+00  0.000E+00  0.000E+00  1.06682E+03  1.364E+00  7.455E+00  6.709E-02  1.682E+00
   1    5    8     3     5    1.0456E+00  1.5790E-01   8.8768E-01  0.000E+00  0.000E+00  0.000E+00  1.06362E+03  1.164E+00  6.655E+00  4.991E-02  1.582E+00
   1    6    8     3     6    8.8768E-01  5.5980E-02   8.3170E-01  0.000E+00  0.000E+00  0.000E+00  1.06158E+03  1.036E+00  6.145E+00  1.844E-02  1.518E+00
   1    5   10     4     1    1.0000E+01  9.0919E-02   9.9091E+00  0.000E+00  0.000E+00  0.000E+00  1.07836E+03  6.368E-01  1.000E+01  2.500E-02  1.212E+00
   1    5    9     4     2    9.9091E+00  1.8158E-01   9.7275E+00  0.000E+00  0.000E+00  0.000E+00  1.07154E+03  6.315E-01  1.000E+01  5.000E-02  1.211E+00
   1    6    8     4     3    9.7275E+00  1.2689E-01   9.6006E+00  0.000E+00  0.000E+00  0.000E+00  1.06381E+03  6.256E-01  1.000E+01  3.500E-02  1.209E+00
   1    6    8     5     1    1.0432E+01  2.2686E-01   1.0205E+01  0.000E+00  0.000E+00  0.000E+00  1.05868E+03  6.790E-01  1.542E+01  6.166E-02  1.226E+00
   1    7    7     5     2    1.0205E+01  2.7894E-01   9.9265E+00  0.000E+00  0.000E+00  0.000E+00  1.05417E+03  6.732E-01  1.519E+01  7.594E-02  1.224E+00
   1    8    7     5     3    9.9265E+00  1.9221E-01   9.7343E+00  0.000E+00  0.000E+00  0.000E+00  1.04992E+03  6.676E-01  1.497E+01  5.241E-02  1.223E+00
   1    8    6     5     4    9.7343E+00  1.3577E-01   9.5985E+00  0.000E+00  0.000E+00  0.000E+00  1.04691E+03  6.637E-01  1.482E+01  3.706E-02  1.221E+00
   1    9    6     6     1    6.5110E+01  3.0992E-01   6.4800E+01  0.000E+00  0.000E+00  0.000E+00  1.04489E+03  2.165E+00  1.200E+01  6.000E-02  1.722E+00
   1   10    7     6     2    6.4800E+01  3.0955E-01   6.4490E+01  0.000E+00  0.000E+00  0.000E+00  1.04034E+03  2.159E+00  1.200E+01  6.000E-02  1.720E+00
   1   11    7     6     3    6.4490E+01  3.0918E-01   6.4181E+01  0.000E+00  0.000E+00  0.000E+00  1.03579E+03  2.153E+00  1.200E+01  6.000E-02  1.718E+00
   1   12    7     6     4    6.4181E+01  3.0881E-01   6.3872E+01  0.000E+00  0.000E+00  0.000E+00  1.03124E+03  2.147E+00  1.200E+01  6.000E-02  1.716E+00
   1   13    7     6     5    6.3872E+01  1.9339E-02   6.3853E+01  0.000E+00  0.000E+00  0.000E+00  1.02805E+03  2.143E+00  1.200E+01  2.400E-02  2.686E-01
   1   14    9     7     1    1.5000E+02  1.3312E+00   1.4867E+02  0.000E+00  0.000E+00  0.000E+00  1.03987E+03  2.288E+00  5.529E+01  5.593E-01  7.934E-01
   1   13    8     7     2    1.4867E+02  1.7954E+00   1.4687E+02  0.000E+00  0.000E+00  0.000E+00  1.03478E+03  2.279E+00  5.526E+01  6.148E-01  9.735E-01
   1   13    7     7     3    1.4687E+02  1.3647E+00   1.4551E+02  0.000E+00  0.000E+00  0.000E+00  1.02969E+03  2.271E+00  5.522E+01  5.585E-01  8.145E-01
   1   13    6     8     1    2.0936E+02  9.6435E-01   2.0840E+02  0.000E+00  0.000E+00  0.000E+00  1.02506E+03  3.189E+00  4.624E+01  4.712E-01  6.821E-01
   1   13    5     8     2    2.0840E+02  1.7041E-01   2.0823E+02  0.000E+00  0.000E+00  0.000E+00  1.01881E+03  3.186E+00  4.620E+01  4.708E-01  1.207E-01
   1   13    4     8     3    2.0823E+02 -2.1828E+00   2.1041E+02  0.000E+00  0.000E+00  0.000E+00  1.01257E+03  3.192E+00  4.628E+01  4.716E+00 -1.543E-01
   1   13    3     8     4    2.1041E+02 -3.3093E+00   2.1372E+02  0.000E+00  0.000E+00  0.000E+00  1.00633E+03  3.207E+00  4.651E+01  4.739E+00 -2.328E-01
   1   13    2     8     5    2.1372E+02 -2.5495E+00   2.1627E+02  0.000E+00  0.000E+00  0.000E+00  1.00010E+03  3.224E+00  4.675E+01  4.764E+00 -1.784E-01
   1   13    1     8     6    2.1627E+02 -2.0052E+00   2.1827E+02  0.000E+00  0.000E+00  0.000E+00  9.95112E+02  3.237E+00  4.693E+01  2.870E+00 -2.329E-01





UNSATURATED ZONE PACKAGE VOLUMETRIC BUDGET FOR  TIME STEP    30 STRESS PERIOD    9
  ------------------------------------------------------------------------------



     CUMULATIVE VOLUMES      L**3       RATES FOR THIS TIME STEP      L**3/T
     ------------------                 ------------------------

           IN:                                      IN:
           ---                                      ---
        INFILTRATION =   464673980.9377          INFILTRATION =          49.5675

          OUT:                                     OUT:
          ----                                     ----
              UZF ET =   392211297.6258                UZF ET =          49.5675
        UZF RECHARGE =       73224.0000          UZF RECHARGE =       0.0000E+00

            IN - OUT =    72389459.3120              IN - OUT =       0.0000E+00

          STORAGE:                                 STORAGE:
          --------                                 --------
      STORAGE CHANGE =    72389465.3777        STORAGE CHANGE =       3.4796E-13

 PERCENT DISCREPANCY IS DIFFERENCE BETWEEN IN-OUT MINUS CHANGE IN STORAGE
 DIVIDED BY THE AVERAGE OF IN AND OUT TIMES 100

 PERCENT DISCREPANCY =           0.00     PERCENT DISCREPANCY =           0.00






1
  VOLUMETRIC BUDGET FOR AGRICULTURAL FIELDS AT  END OF TIME STEP   30, STRESS PERIOD   9
  ------------------------------------------------------------------------------

     CUMULATIVE VOLUMES      L**3       RATES FOR THIS TIME STEP      L**3/T
     ------------------                 ------------------------

           IN:                                      IN:
           ---                                      ---
               AG WELLS  =   446768832.0000                 AG WELLS  =          48.7200
      DIVERSION SEGMENTS =           0.0000        DIVERSION SEGMENTS =           0.0000
           GW IRRIGATION =           0.0000             GW IRRIGATION =           0.0000
           SW IRRIGATION =           0.0000             SW IRRIGATION =           0.0000
        SYSTEM LOSSES GW =           0.0000          SYSTEM LOSSES GW =           0.0000
        SYSTEM LOSSES SW =           0.0000          SYSTEM LOSSES SW =           0.0000

                TOTAL IN =   446768832.0000                  TOTAL IN =          48.7200

          OUT:                                     OUT:
          ----                                     ----
               AG WELLS  =           0.0000                 AG WELLS  =           0.0000
      DIVERSION SEGMENTS =           0.0000        DIVERSION SEGMENTS =           0.0000
           GW IRRIGATION =   446768832.0000             GW IRRIGATION =          48.7200
           SW IRRIGATION =           0.0000             SW IRRIGATION =           0.0000
        SYSTEM LOSSES GW =           0.0000          SYSTEM LOSSES GW =           0.0000
        SYSTEM LOSSES SW =           0.0000          SYSTEM LOSSES SW =           0.0000

               TOTAL OUT =   446768832.0000                 TOTAL OUT =          48.7200

                IN - OUT =           0.0000                  IN - OUT =           0.0000

     PERCENT DISCREPANCY =           0.00         PERCENT DISCREPANCY =           0.00



1
  VOLUMETRIC BUDGET FOR ENTIRE MODEL AT END OF TIME STEP   30, STRESS PERIOD   9
  ------------------------------------------------------------------------------

     CUMULATIVE VOLUMES      L**3       RATES FOR THIS TIME STEP      L**3/T
     ------------------                 ------------------------

           IN:                                      IN:
           ---                                      ---
             STORAGE     =   448990720.0000               STORAGE     =          47.7548
       CONSTANT HEAD     =           0.0000         CONSTANT HEAD     =           0.0000
     HEAD DEP BOUNDS     =     6030661.5000       HEAD DEP BOUNDS     =           0.2854
      STREAM LEAKAGE     =   270659904.0000        STREAM LEAKAGE     =          12.7727
        UZF RECHARGE     =       73223.9531          UZF RECHARGE     =           0.0000
               GW ET     =           0.0000                 GW ET     =           0.0000
     SURFACE LEAKAGE     =           0.0000       SURFACE LEAKAGE     =           0.0000
           AG WELLS      =           0.0000             AG WELLS      =           0.0000

                TOTAL IN =   725754496.0000                  TOTAL IN =          60.8130

          OUT:                                     OUT:
          ----                                     ----
             STORAGE     =    47415560.0000               STORAGE     =           0.7708
       CONSTANT HEAD     =           0.0000         CONSTANT HEAD     =           0.0000
     HEAD DEP BOUNDS     =     6242937.0000       HEAD DEP BOUNDS     =           0.2968
      STREAM LEAKAGE     =   212315392.0000        STREAM LEAKAGE     =          10.0468
        UZF RECHARGE     =           0.0000          UZF RECHARGE     =           0.0000
               GW ET     =    13017620.0000                 GW ET     =           0.9788
     SURFACE LEAKAGE     =           0.0000       SURFACE LEAKAGE     =           0.0000
           AG WELLS      =   446768832.0000             AG WELLS      =          48.7200

               TOTAL OUT =   725760384.0000                 TOTAL OUT =          60.8132

                IN - OUT =       -5888.0000                  IN - OUT =      -1.7166E-04

     PERCENT DISCREPANCY =          -0.00         PERCENT DISCREPANCY =          -0.00






         TIME SUMMARY AT END OF TIME STEP   30 IN STRESS PERIOD    9
                    SECONDS     MINUTES      HOURS       DAYS        YEARS
                    -----------------------------------------------------------
   TIME STEP LENGTH  87667.      1461.1      24.352      1.0147     2.77799E-03
 STRESS PERIOD TIME 2.63000E+06  43833.      730.56      30.440     8.33397E-02
         TOTAL TIME 2.11264E+07 3.52107E+05  5868.4      244.52     0.66945    
1
1
                            STRESS PERIOD NO.   10, LENGTH =   2630000.    
                            -----------------------------------------------

                              NUMBER OF TIME STEPS =    30

                               MULTIPLIER FOR DELT =     1.000

                            INITIAL TIME STEP SIZE =   87666.66    

 REUSING NON-PARAMETER GHB CELLS FROM LAST STRESS PERIOD

      2 GHB CELLS

 REUSING STREAM SEGMENT DATA FROM LAST STRESS PERIOD



            AREAL INFILTRATION RATE
 READING ON UNIT   19 WITH FORMAT: (FREE)              

            1           2           3           4           5           6           7           8           9          10
 ........................................................................................................................
   1   1.0000E-10  2.0000E-10   0.000       0.000       0.000       0.000       0.000       0.000       0.000       0.000    
   2   2.0000E-10  1.0000E-10  2.0000E-10   0.000       0.000      8.0000E-10  8.0000E-10  5.0000E-10   0.000       0.000    
   3    0.000      5.0000E-10  1.0000E-10  1.0000E-10  8.0000E-10  8.0000E-10  5.0000E-10  5.0000E-10   0.000       0.000    
   4   8.0000E-10  5.0000E-10  1.0000E-10  1.0000E-10  1.0000E-10  1.0000E-10  1.0000E-10  1.0000E-10  2.0000E-10   0.000    
   5   8.0000E-10  5.0000E-10  1.0000E-10  1.0000E-10  1.0000E-10  1.0000E-10  1.0000E-10  1.0000E-10  1.0000E-10  1.0000E-10
   6   8.0000E-10  5.0000E-10  5.0000E-10  2.0000E-10  2.0000E-10  1.0000E-10  1.0000E-10  1.0000E-10  1.0000E-10  5.0000E-10
   7   8.0000E-10  5.0000E-10  5.0000E-10  2.0000E-10  2.0000E-10  1.0000E-10  1.0000E-10  2.0000E-10  2.0000E-10   0.000    
   8    0.000      5.0000E-10  5.0000E-10  2.0000E-10  2.0000E-10  1.0000E-10  1.0000E-10  2.0000E-10  5.0000E-10   0.000    
   9    0.000      5.0000E-10  5.0000E-10  2.0000E-10  2.0000E-10  1.0000E-10  1.0000E-10  2.0000E-10  5.0000E-10   0.000    
  10    0.000      5.0000E-10  5.0000E-10  2.0000E-10  2.0000E-10  1.0000E-10  1.0000E-10  2.0000E-10  5.0000E-10  8.0000E-10
  11    0.000      1.0000E-10  1.0000E-10  1.0000E-10  1.0000E-10  1.0000E-10  1.0000E-10  2.0000E-10  5.0000E-10   0.000    
  12   1.0000E-10  1.0000E-10  1.0000E-10  1.0000E-10  1.0000E-10  1.0000E-10  1.0000E-10  1.0000E-10  2.0000E-10   0.000    
  13   1.0000E-10  1.0000E-10  2.0000E-10  2.0000E-10  2.0000E-10  2.0000E-10  2.0000E-10  1.0000E-10  1.0000E-10   0.000    
  14    0.000      2.0000E-10  5.0000E-10  5.0000E-10  5.0000E-10  5.0000E-10  5.0000E-10  2.0000E-10  1.0000E-10   0.000    
  15    0.000       0.000      8.0000E-10  8.0000E-10  8.0000E-10  8.0000E-10   0.000       0.000       0.000       0.000    

                  ET RATE =  7.500000E-08

 USING ET EXTINCTION DEPTH FROM PREVIOUS STRESS PERIOD. CURRENT PERIOD IS:      10

 USING EXTINCTION WATER CONTENT FROM PREVIOUS STRESS PERIOD. CURRENT PERIOD IS:      10

 USING AIR ENTRY PRESSURE FROM PREVIOUS STRESS PERIOD. CURRENT PERIOD IS:      10

 USING ROOT PRESSURE HEAD FROM PREVIOUS STRESS PERIOD. CURRENT PERIOD IS:      10

 USING ROOT ACTIVITY FROM PREVIOUS STRESS PERIOD. CURRENT PERIOD IS:      10

 PROCESSING AG STRESS PERIOD DATA

 READING AG STRESS PERIOD DATA

 READING IRRIGATION WELL

 END PROCESSING AG STRESS PERIOD DATA OPTIONS
 
 SOLVING FOR HEAD 
                                                   Max.-Head-Change                         Max.-Flux-Residual
  Residual-Control   Outer-Iter.   Inner-Iter.     Column Row Layer    Maximum-Head-Change  Column Row Layer    Maximum-Flux-Residual          L2-NORM 
          0                 1           2             5    6     1       0.7964276109E-01       5    8    1         0.4330653609E+01      0.1190162830E+02
          0                 2           2             5    6     1      -0.7746902275E-02       5    8    1        -0.4330541711E+00      0.1190113298E+01
          0                 3           2             5    6     1       0.5275348668E-03       5    8    1         0.3031379286E-01      0.8330633469E-01
          0                 4           1             5    6     1      -0.2099105523E-04       5    8    1        -0.1239835352E-02      0.3407241667E-02

    ------------------------------------------------
       NWT REQUIRED            4 OUTER ITERATIONS 
       AND A TOTAL OF          7 INNER ITERATIONS.
    ------------------------------------------------

 NO OUTPUT CONTROL FOR STRESS PERIOD   10   TIME STEP    1
 
 SOLVING FOR HEAD 
                                                   Max.-Head-Change                         Max.-Flux-Residual
  Residual-Control   Outer-Iter.   Inner-Iter.     Column Row Layer    Maximum-Head-Change  Column Row Layer    Maximum-Flux-Residual          L2-NORM 
          0                 1           2             5    8     1       0.1569802391E+00       5    8    1         0.8599362606E+01      0.1379211816E+02
          0                 2           2             5    8     1       0.2375743998E-01       5    8    1         0.1317768651E+01      0.1702682921E+01
          0                 3           2             5    8     1       0.6234073497E-02       5    8    1         0.3435960848E+00      0.3518413784E+00
          0                 4           1             5    8     1       0.1635862136E-02       5    8    1         0.9029242626E-01      0.9034302647E-01
          0                 5           1             5    8     1       0.4292613113E-03       5    8    1         0.2368620305E-01      0.2368726444E-01
          0                 6           1             5    8     1       0.1126411012E-03       5    8    1         0.6215797079E-02      0.6215978704E-02
          0                 7           1             5    8     1       0.2955779646E-04       5    8    1         0.1631051418E-02      0.1631102170E-02

    ------------------------------------------------
       NWT REQUIRED            7 OUTER ITERATIONS 
       AND A TOTAL OF         10 INNER ITERATIONS.
    ------------------------------------------------

 NO OUTPUT CONTROL FOR STRESS PERIOD   10   TIME STEP    2
 
 SOLVING FOR HEAD 
                                                   Max.-Head-Change                         Max.-Flux-Residual
  Residual-Control   Outer-Iter.   Inner-Iter.     Column Row Layer    Maximum-Head-Change  Column Row Layer    Maximum-Flux-Residual          L2-NORM 
          0                 1           2             5    8     1       0.1483871918E+00       5    8    1         0.8118751625E+01      0.1329562385E+02
          0                 2           2             5    8     1       0.1716557949E-01       5    8    1         0.9546021689E+00      0.1421181181E+01
          0                 3           2             5    8     1      -0.1668909451E-02       5    8    1        -0.9522426677E-01      0.1205338370E+00
          0                 4           1             5    8     1       0.1135647075E-03       5    8    1         0.6648088676E-02      0.7311422598E-02
          0                 5           1             5    8     1      -0.4513444139E-05       5    8    1        -0.2710740052E-03      0.2740802126E-03

    ------------------------------------------------
       NWT REQUIRED            5 OUTER ITERATIONS 
       AND A TOTAL OF          8 INNER ITERATIONS.
    ------------------------------------------------

 NO OUTPUT CONTROL FOR STRESS PERIOD   10   TIME STEP    3
 
 SOLVING FOR HEAD 
                                                   Max.-Head-Change                         Max.-Flux-Residual
  Residual-Control   Outer-Iter.   Inner-Iter.     Column Row Layer    Maximum-Head-Change  Column Row Layer    Maximum-Flux-Residual          L2-NORM 
          0                 1           2             5    8     1       0.1392128370E+00       5    8    1         0.7607625968E+01      0.1279184142E+02
          0                 2           2             5    8     1      -0.1353499618E-01       5    8    1        -0.7603923945E+00      0.1278928873E+01
          0                 3           2             5    8     1       0.9210155063E-03       5    8    1         0.5318851875E-01      0.8950130991E-01
          0                 4           1             5    8     1      -0.3660427679E-04       5    8    1        -0.2172787950E-02      0.3659001853E-02

    ------------------------------------------------
       NWT REQUIRED            4 OUTER ITERATIONS 
       AND A TOTAL OF          7 INNER ITERATIONS.
    ------------------------------------------------

 NO OUTPUT CONTROL FOR STRESS PERIOD   10   TIME STEP    4
 
 SOLVING FOR HEAD 
                                                   Max.-Head-Change                         Max.-Flux-Residual
  Residual-Control   Outer-Iter.   Inner-Iter.     Column Row Layer    Maximum-Head-Change  Column Row Layer    Maximum-Flux-Residual          L2-NORM 
          0                 1           2             5    8     1       0.1324957385E+00       5    8    1         0.7234235182E+01      0.1237338156E+02
          0                 2           2             5    8     1      -0.1288189865E-01       5    8    1        -0.7230693225E+00      0.1237099363E+01
          0                 3           2             5    8     1       0.8765743601E-03       5    8    1         0.5057779490E-01      0.8657476405E-01
          0                 4           1             5    8     1      -0.3483803439E-04       5    8    1        -0.2066135805E-02      0.3539412082E-02

    ------------------------------------------------
       NWT REQUIRED            4 OUTER ITERATIONS 
       AND A TOTAL OF          7 INNER ITERATIONS.
    ------------------------------------------------

 NO OUTPUT CONTROL FOR STRESS PERIOD   10   TIME STEP    5
 
 SOLVING FOR HEAD 
                                                   Max.-Head-Change                         Max.-Flux-Residual
  Residual-Control   Outer-Iter.   Inner-Iter.     Column Row Layer    Maximum-Head-Change  Column Row Layer    Maximum-Flux-Residual          L2-NORM 
          0                 1           2             5    8     1       0.1262120432E+00       5    8    1         0.6885177640E+01      0.1198035727E+02
          0                 2           2             5    8     1      -0.1227094315E-01       5    8    1        -0.6881787266E+00      0.1197812183E+01
          0                 3           2             5    8     1       0.8350008148E-03       5    8    1         0.4813722060E-01      0.8382603826E-01
          0                 4           1             5    8     1      -0.3318576014E-04       5    8    1        -0.1966434628E-02      0.3427087479E-02

    ------------------------------------------------
       NWT REQUIRED            4 OUTER ITERATIONS 
       AND A TOTAL OF          7 INNER ITERATIONS.
    ------------------------------------------------

 NO OUTPUT CONTROL FOR STRESS PERIOD   10   TIME STEP    6
 
 SOLVING FOR HEAD 
                                                   Max.-Head-Change                         Max.-Flux-Residual
  Residual-Control   Outer-Iter.   Inner-Iter.     Column Row Layer    Maximum-Head-Change  Column Row Layer    Maximum-Flux-Residual          L2-NORM 
          0                 1           2             5    8     1       0.1203298946E+00       5    8    1         0.6558653080E+01      0.1161063989E+02
          0                 2           2             5    8     1       0.8908344065E-02       5    8    1         0.5000442617E+00      0.1080691607E+01
          0                 3           2             5    8     1       0.2337404656E-02       5    8    1         0.1284236902E+00      0.1449392313E+00
          0                 4           1             5    8     1       0.6132995115E-03       5    8    1         0.3387035940E-01      0.3397696758E-01
          0                 5           1             5    8     1       0.1609205099E-03       5    8    1         0.8879601191E-02      0.8880176327E-02
          0                 6           1             5    8     1       0.4222310955E-04       5    8    1         0.2329814336E-02      0.2329976058E-02

    ------------------------------------------------
       NWT REQUIRED            6 OUTER ITERATIONS 
       AND A TOTAL OF          9 INNER ITERATIONS.
    ------------------------------------------------

 NO OUTPUT CONTROL FOR STRESS PERIOD   10   TIME STEP    7
 
 SOLVING FOR HEAD 
                                                   Max.-Head-Change                         Max.-Flux-Residual
  Residual-Control   Outer-Iter.   Inner-Iter.     Column Row Layer    Maximum-Head-Change  Column Row Layer    Maximum-Flux-Residual          L2-NORM 
          0                 1           2             5    8     1       0.1133597459E+00       5    8    1         0.6171237094E+01      0.1122717312E+02
          0                 2           2             5    8     1       0.2974326428E-01       5    8    1         0.1650379061E+01      0.1898249619E+01
          0                 3           2             5    8     1       0.7803956800E-02       5    8    1         0.4301214206E+00      0.4351733510E+00
          0                 4           1             5    8     1       0.2047593422E-02       5    8    1         0.1130290726E+00      0.1130577414E+00
          0                 5           1             5    8     1       0.5372457133E-03       5    8    1         0.2964930531E-01      0.2965016842E-01
          0                 6           1             5    8     1       0.1409620825E-03       5    8    1         0.7779609034E-02      0.7779751146E-02
          0                 7           1             5    8     1       0.3698551581E-04       5    8    1         0.2041201322E-02      0.2041240676E-02

    ------------------------------------------------
       NWT REQUIRED            7 OUTER ITERATIONS 
       AND A TOTAL OF         10 INNER ITERATIONS.
    ------------------------------------------------

 NO OUTPUT CONTROL FOR STRESS PERIOD   10   TIME STEP    8
 
 SOLVING FOR HEAD 
                                                   Max.-Head-Change                         Max.-Flux-Residual
  Residual-Control   Outer-Iter.   Inner-Iter.     Column Row Layer    Maximum-Head-Change  Column Row Layer    Maximum-Flux-Residual          L2-NORM 
          0                 1           2             5    8     1       0.1050846259E+00       5    8    1         0.5710807004E+01      0.1082935923E+02
          0                 2           2             5    8     1      -0.8152617841E-02       5    8    1        -0.4536597092E+00      0.1025855863E+01
          0                 3           2             5    8     1       0.5547621565E-03       5    8    1         0.3173280862E-01      0.7179903029E-01
          0                 4           1             5    8     1      -0.2204812013E-04       5    8    1        -0.1296291637E-02      0.2935858078E-02

    ------------------------------------------------
       NWT REQUIRED            4 OUTER ITERATIONS 
       AND A TOTAL OF          7 INNER ITERATIONS.
    ------------------------------------------------

 NO OUTPUT CONTROL FOR STRESS PERIOD   10   TIME STEP    9
 
 SOLVING FOR HEAD 
                                                   Max.-Head-Change                         Max.-Flux-Residual
  Residual-Control   Outer-Iter.   Inner-Iter.     Column Row Layer    Maximum-Head-Change  Column Row Layer    Maximum-Flux-Residual          L2-NORM 
          0                 1           2             4    8     1       0.1507854859E+00       4    8    1         0.8079999860E+01      0.1276145878E+02
          0                 2           2             4    8     1      -0.1465997949E-01       4    8    1        -0.8076008222E+00      0.1275747677E+01
          0                 3           2             4    8     1       0.9975474256E-03       4    8    1         0.5648986344E-01      0.8926325512E-01
          0                 4           1             4    8     1      -0.3964460526E-04       4    8    1        -0.2307595053E-02      0.3648227677E-02

    ------------------------------------------------
       NWT REQUIRED            4 OUTER ITERATIONS 
       AND A TOTAL OF          7 INNER ITERATIONS.
    ------------------------------------------------

 NO OUTPUT CONTROL FOR STRESS PERIOD   10   TIME STEP   10
 
 SOLVING FOR HEAD 
                                                   Max.-Head-Change                         Max.-Flux-Residual
  Residual-Control   Outer-Iter.   Inner-Iter.     Column Row Layer    Maximum-Head-Change  Column Row Layer    Maximum-Flux-Residual          L2-NORM 
          0                 1           2             5    7     1       0.1494171417E+00       5    7    1         0.8085966976E+01      0.1444534338E+02
          0                 2           2             5    7     1      -0.1452724924E-01       5    7    1        -0.8082147541E+00      0.1443969567E+01
          0                 3           2             5    7     1       0.9885263250E-03       5    7    1         0.5653309126E-01      0.1010211540E+00
          0                 4           1             5    7     1      -0.3928692591E-04       5    7    1        -0.2309389404E-02      0.4127941148E-02

    ------------------------------------------------
       NWT REQUIRED            4 OUTER ITERATIONS 
       AND A TOTAL OF          7 INNER ITERATIONS.
    ------------------------------------------------

 NO OUTPUT CONTROL FOR STRESS PERIOD   10   TIME STEP   11
 
 SOLVING FOR HEAD 
                                                   Max.-Head-Change                         Max.-Flux-Residual
  Residual-Control   Outer-Iter.   Inner-Iter.     Column Row Layer    Maximum-Head-Change  Column Row Layer    Maximum-Flux-Residual          L2-NORM 
          0                 1           2             5    7     1       0.1475158758E+00       5    7    1         0.7910662178E+01      0.1565046364E+02
          0                 2           2             4    8     1       0.3330955594E-01       4    8    1         0.1817443488E+01      0.2421173095E+01
          0                 3           2             4    8     1       0.8949594753E-02       4    8    1         0.4848022832E+00      0.5731780736E+00
          0                 4           2             4    8     1       0.2404561121E-02       4    8    1         0.1304688728E+00      0.1520528534E+00
          0                 5           2             4    8     1       0.6460483835E-03       4    8    1         0.3504450644E-01      0.4058470379E-01
          0                 6           2             4    8     1       0.1735765505E-03       4    8    1         0.9416033053E-02      0.1084144268E-01
          0                 7           1             4    8     1       0.4663520192E-04       4    8    1         0.2529825868E-02      0.2896530047E-02

    ------------------------------------------------
       NWT REQUIRED            7 OUTER ITERATIONS 
       AND A TOTAL OF         13 INNER ITERATIONS.
    ------------------------------------------------

 NO OUTPUT CONTROL FOR STRESS PERIOD   10   TIME STEP   12
 
 SOLVING FOR HEAD 
                                                   Max.-Head-Change                         Max.-Flux-Residual
  Residual-Control   Outer-Iter.   Inner-Iter.     Column Row Layer    Maximum-Head-Change  Column Row Layer    Maximum-Flux-Residual          L2-NORM 
          0                 1           2             5    7     1       0.1405053814E+00       5    7    1         0.7520703815E+01      0.1519848012E+02
          0                 2           2             5    7     1       0.2372877026E-01       5    7    1         0.1333601715E+01      0.1761867121E+01
          0                 3           2             5    7     1      -0.2306990830E-02       5    7    1        -0.1326286532E+00      0.1575859032E+00
          0                 4           2             5    7     1       0.1569857462E-03       5    7    1         0.9232354341E-02      0.1008661164E-01
          0                 5           1             5    7     1      -0.6239185801E-05       5    7    1        -0.3753696494E-03      0.3908746449E-03

    ------------------------------------------------
       NWT REQUIRED            5 OUTER ITERATIONS 
       AND A TOTAL OF          9 INNER ITERATIONS.
    ------------------------------------------------

 NO OUTPUT CONTROL FOR STRESS PERIOD   10   TIME STEP   13
 
 SOLVING FOR HEAD 
                                                   Max.-Head-Change                         Max.-Flux-Residual
  Residual-Control   Outer-Iter.   Inner-Iter.     Column Row Layer    Maximum-Head-Change  Column Row Layer    Maximum-Flux-Residual          L2-NORM 
          0                 1           2             5    7     1       0.1343119506E+00       5    7    1         0.7179898073E+01      0.1474594641E+02
          0                 2           2             5    7     1      -0.1279271641E-01       5    7    1        -0.7176333253E+00      0.1472334939E+01
          0                 3           2             5    8     1       0.2308339242E-02       5    8    1         0.1259819076E+00      0.1589628424E+00
          0                 4           1             5    8     1       0.6056414181E-03       5    8    1         0.3348350608E-01      0.3370475927E-01
          0                 5           1             5    8     1       0.1589023819E-03       5    8    1         0.8768806203E-02      0.8769477865E-02
          0                 6           1             5    8     1       0.4169130057E-04       5    8    1         0.2300675955E-02      0.2300812749E-02

    ------------------------------------------------
       NWT REQUIRED            6 OUTER ITERATIONS 
       AND A TOTAL OF          9 INNER ITERATIONS.
    ------------------------------------------------

 NO OUTPUT CONTROL FOR STRESS PERIOD   10   TIME STEP   14
 
 SOLVING FOR HEAD 
                                                   Max.-Head-Change                         Max.-Flux-Residual
  Residual-Control   Outer-Iter.   Inner-Iter.     Column Row Layer    Maximum-Head-Change  Column Row Layer    Maximum-Flux-Residual          L2-NORM 
          0                 1           2             5    7     1       0.1314866370E+00       5    7    1         0.6997779116E+01      0.1500087935E+02
          0                 2           2             4    7     1       0.2984506694E-01       4    7    1         0.1646121422E+01      0.2692148010E+01
          0                 3           2             5    8     1       0.6409082457E-02       5    8    1         0.3522309618E+00      0.4839280760E+00
          0                 4           2             5    8     1       0.1682007923E-02       5    8    1         0.9286940628E-01      0.1243398079E+00
          0                 5           2             5    8     1       0.4414282371E-03       5    8    1         0.2435600346E-01      0.3254660491E-01
          0                 6           1             5    8     1       0.1158490241E-03       5    8    1         0.6392199390E-02      0.8542414115E-02
          0                 7           1             5    8     1       0.3040358421E-04       5    8    1         0.1677568277E-02      0.2242299863E-02

    ------------------------------------------------
       NWT REQUIRED            7 OUTER ITERATIONS 
       AND A TOTAL OF         12 INNER ITERATIONS.
    ------------------------------------------------

 NO OUTPUT CONTROL FOR STRESS PERIOD   10   TIME STEP   15
 
 SOLVING FOR HEAD 
                                                   Max.-Head-Change                         Max.-Flux-Residual
  Residual-Control   Outer-Iter.   Inner-Iter.     Column Row Layer    Maximum-Head-Change  Column Row Layer    Maximum-Flux-Residual          L2-NORM 
          0                 1           2             4    7     1       0.1569041849E+00       4    7    1         0.8309319976E+01      0.1580112175E+02
          0                 2           2             5    6     1       0.2693917723E-01       5    6    1         0.1500776719E+01      0.2061798264E+01
          0                 3           2             5    6     1      -0.2619164698E-02       5    6    1        -0.1496212305E+00      0.1812297657E+00
          0                 4           2             5    6     1       0.1782274213E-03       5    6    1         0.1043992718E-01      0.1141989199E-01
          0                 5           1             5    6     1      -0.7083382416E-05       5    6    1        -0.4254525970E-03      0.4390517672E-03

    ------------------------------------------------
       NWT REQUIRED            5 OUTER ITERATIONS 
       AND A TOTAL OF          9 INNER ITERATIONS.
    ------------------------------------------------

 NO OUTPUT CONTROL FOR STRESS PERIOD   10   TIME STEP   16
 
 SOLVING FOR HEAD 
                                                   Max.-Head-Change                         Max.-Flux-Residual
  Residual-Control   Outer-Iter.   Inner-Iter.     Column Row Layer    Maximum-Head-Change  Column Row Layer    Maximum-Flux-Residual          L2-NORM 
          0                 1           2             4    7     1       0.1540126176E+00       4    7    1         0.8153569477E+01      0.1543311923E+02
          0                 2           2             4    7     1      -0.1437039017E-01       4    7    1        -0.8149456635E+00      0.1481473551E+01
          0                 3           2             4    8     1       0.3828870320E-02       4    8    1         0.2066407300E+00      0.2364723054E+00
          0                 4           2             4    8     1       0.1028547473E-02       4    8    1         0.5584903304E-01      0.5971398828E-01
          0                 5           2             4    8     1       0.2762965947E-03       4    8    1         0.1498879078E-01      0.1595412175E-01
          0                 6           1             4    8     1       0.7422066233E-04       4    8    1         0.4026620067E-02      0.4274835392E-02

    ------------------------------------------------
       NWT REQUIRED            6 OUTER ITERATIONS 
       AND A TOTAL OF         11 INNER ITERATIONS.
    ------------------------------------------------

 NO OUTPUT CONTROL FOR STRESS PERIOD   10   TIME STEP   17
 
 SOLVING FOR HEAD 
                                                   Max.-Head-Change                         Max.-Flux-Residual
  Residual-Control   Outer-Iter.   Inner-Iter.     Column Row Layer    Maximum-Head-Change  Column Row Layer    Maximum-Flux-Residual          L2-NORM 
          0                 1           2             4    7     1       0.1518552323E+00       4    7    1         0.8041065052E+01      0.1509051461E+02
          0                 2           2             5    7     1       0.3292899073E-01       5    7    1         0.1845551266E+01      0.2839319928E+01
          0                 3           2             5    7     1       0.8636887807E-02       5    7    1         0.4748812930E+00      0.4952148336E+00
          0                 4           2             5    7     1       0.2264789053E-02       5    7    1         0.1251284909E+00      0.1256630221E+00
          0                 5           2             5    7     1       0.5938791619E-03       5    7    1         0.3278719227E-01      0.3279786735E-01
          0                 6           2             5    7     1       0.1557286611E-03       5    7    1         0.8597905642E-02      0.8598258903E-02
          0                 7           1             5    7     1       0.4083560778E-04       5    7    1         0.2254545115E-02      0.2254625485E-02

    ------------------------------------------------
       NWT REQUIRED            7 OUTER ITERATIONS 
       AND A TOTAL OF         13 INNER ITERATIONS.
    ------------------------------------------------

 NO OUTPUT CONTROL FOR STRESS PERIOD   10   TIME STEP   18
 
 SOLVING FOR HEAD 
                                                   Max.-Head-Change                         Max.-Flux-Residual
  Residual-Control   Outer-Iter.   Inner-Iter.     Column Row Layer    Maximum-Head-Change  Column Row Layer    Maximum-Flux-Residual          L2-NORM 
          0                 1           2             4    7     1       0.1516095976E+00       4    7    1         0.7972704293E+01      0.1628184124E+02
          0                 2           2             4    7     1       0.1951208104E-01       4    7    1         0.1073187559E+01      0.1653714568E+01
          0                 3           2             4    7     1       0.5259279651E-02       4    7    1         0.2834712223E+00      0.3171734003E+00
          0                 4           2             4    7     1       0.1417990071E-02       4    7    1         0.7677563595E-01      0.8337088257E-01
          0                 5           2             4    7     1       0.3824207092E-03       4    7    1         0.2068697775E-01      0.2256730060E-01
          0                 6           1             4    7     1       0.1031641670E-03       4    7    1         0.5579404996E-02      0.6118814833E-02
          0                 7           1             4    7     1       0.2783768777E-04       4    7    1         0.1505244059E-02      0.1659512240E-02

    ------------------------------------------------
       NWT REQUIRED            7 OUTER ITERATIONS 
       AND A TOTAL OF         12 INNER ITERATIONS.
    ------------------------------------------------

 NO OUTPUT CONTROL FOR STRESS PERIOD   10   TIME STEP   19
 
 SOLVING FOR HEAD 
                                                   Max.-Head-Change                         Max.-Flux-Residual
  Residual-Control   Outer-Iter.   Inner-Iter.     Column Row Layer    Maximum-Head-Change  Column Row Layer    Maximum-Flux-Residual          L2-NORM 
          0                 1           2             4    7     1       0.1481502565E+00       4    7    1         0.7786937461E+01      0.1602342025E+02
          0                 2           2             4    6     1       0.3846101374E-01       4    6    1         0.2085640096E+01      0.2776914659E+01
          0                 3           2             4    6     1       0.2487792024E-02       4    7    1        -0.1399278171E+00      0.2129209404E+00
          0                 4           2             4    6     1      -0.2418693573E-03       4    6    1        -0.1368087181E-01      0.1717904661E-01
          0                 5           1             4    6     1       0.1645852853E-04       4    6    1         0.9544882569E-03      0.1037913252E-02

    ------------------------------------------------
       NWT REQUIRED            5 OUTER ITERATIONS 
       AND A TOTAL OF          9 INNER ITERATIONS.
    ------------------------------------------------

 NO OUTPUT CONTROL FOR STRESS PERIOD   10   TIME STEP   20
 
 SOLVING FOR HEAD 
                                                   Max.-Head-Change                         Max.-Flux-Residual
  Residual-Control   Outer-Iter.   Inner-Iter.     Column Row Layer    Maximum-Head-Change  Column Row Layer    Maximum-Flux-Residual          L2-NORM 
          0                 1           2             4    7     1       0.1453561565E+00       4    7    1         0.7640898602E+01      0.1568111215E+02
          0                 2           2             4    7     1      -0.1412766845E-01       4    7    1        -0.7636949973E+00      0.1471466984E+01
          0                 3           2             4    7     1       0.9611431168E-03       4    7    1         0.5341807262E-01      0.1045093579E+00
          0                 4           1             5    6     1      -0.8391158948E-04       5    6    1        -0.4700689866E-02      0.6310521066E-02

    ------------------------------------------------
       NWT REQUIRED            4 OUTER ITERATIONS 
       AND A TOTAL OF          7 INNER ITERATIONS.
    ------------------------------------------------

 NO OUTPUT CONTROL FOR STRESS PERIOD   10   TIME STEP   21
 
 SOLVING FOR HEAD 
                                                   Max.-Head-Change                         Max.-Flux-Residual
  Residual-Control   Outer-Iter.   Inner-Iter.     Column Row Layer    Maximum-Head-Change  Column Row Layer    Maximum-Flux-Residual          L2-NORM 
          0                 1           2             4    7     1       0.1436435969E+00       4    7    1         0.7552552975E+01      0.1539394693E+02
          0                 2           2             5    6     1       0.2602950075E-01       5    6    1         0.1457030048E+01      0.2007477472E+01
          0                 3           2             5    6     1       0.6831286334E-02       5    6    1         0.3755343552E+00      0.3879666476E+00
          0                 4           2             5    6     1       0.1792848156E-02       5    6    1         0.9898892452E-01      0.9906489303E-01
          0                 5           2             5    6     1       0.4705267935E-03       5    6    1         0.2596203331E-01      0.2596554746E-01
          0                 6           2             5    6     1       0.1234881472E-03       5    6    1         0.6813824182E-02      0.6814769331E-02
          0                 7           1             5    6     1       0.3240903596E-04       5    6    1         0.1788252323E-02      0.1788524892E-02

    ------------------------------------------------
       NWT REQUIRED            7 OUTER ITERATIONS 
       AND A TOTAL OF         13 INNER ITERATIONS.
    ------------------------------------------------

 NO OUTPUT CONTROL FOR STRESS PERIOD   10   TIME STEP   22
 
 SOLVING FOR HEAD 
                                                   Max.-Head-Change                         Max.-Flux-Residual
  Residual-Control   Outer-Iter.   Inner-Iter.     Column Row Layer    Maximum-Head-Change  Column Row Layer    Maximum-Flux-Residual          L2-NORM 
          0                 1           2             4    7     1       0.1419628214E+00       4    7    1         0.7464719051E+01      0.1510013282E+02
          0                 2           2             5    8     1       0.2128228651E-01       5    8    1         0.1164671852E+01      0.1906082682E+01
          0                 3           2             5    8     1       0.5656579592E-02       5    8    1         0.3092383430E+00      0.3621727775E+00
          0                 4           2             5    8     1       0.1504759563E-02       5    8    1         0.8221730499E-01      0.9232770171E-01
          0                 5           2             5    8     1       0.4006376689E-03       5    8    1         0.2187630705E-01      0.2479785465E-01
          0                 6           1             5    8     1       0.1067583573E-03       5    8    1         0.5825870042E-02      0.6686108182E-02
          0                 7           1             5    8     1       0.2847154669E-04       5    8    1         0.1552779877E-02      0.1804694370E-02

    ------------------------------------------------
       NWT REQUIRED            7 OUTER ITERATIONS 
       AND A TOTAL OF         12 INNER ITERATIONS.
    ------------------------------------------------

 NO OUTPUT CONTROL FOR STRESS PERIOD   10   TIME STEP   23
 
 SOLVING FOR HEAD 
                                                   Max.-Head-Change                         Max.-Flux-Residual
  Residual-Control   Outer-Iter.   Inner-Iter.     Column Row Layer    Maximum-Head-Change  Column Row Layer    Maximum-Flux-Residual          L2-NORM 
          0                 1           2             4    7     1       0.1408147861E+00       4    7    1         0.7407258791E+01      0.1480323821E+02
          0                 2           2             5    7     1       0.3026694505E-01       5    7    1         0.1643665352E+01      0.2887756303E+01
          0                 3           2             4    8     1       0.8287818082E-02       5    7    1         0.4412741541E+00      0.7777711847E+00
          0                 4           2             4    8     1       0.2271322409E-02       4    8    1         0.1216871047E+00      0.1972600080E+00
          0                 5           2             4    8     1       0.6182579489E-03       4    8    1         0.3326378618E-01      0.5334109695E-01
          0                 6           2             4    8     1       0.1683459184E-03       4    8    1         0.9041201968E-02      0.1446826613E-01
          0                 7           1             4    8     1       0.4585339869E-04       4    8    1         0.2462824650E-02      0.3936358200E-02

    ------------------------------------------------
       NWT REQUIRED            7 OUTER ITERATIONS 
       AND A TOTAL OF         13 INNER ITERATIONS.
    ------------------------------------------------

 NO OUTPUT CONTROL FOR STRESS PERIOD   10   TIME STEP   24
 
 SOLVING FOR HEAD 
                                                   Max.-Head-Change                         Max.-Flux-Residual
  Residual-Control   Outer-Iter.   Inner-Iter.     Column Row Layer    Maximum-Head-Change  Column Row Layer    Maximum-Flux-Residual          L2-NORM 
          0                 1           2             4    7     1       0.1384434384E+00       4    7    1         0.7285069866E+01      0.1448413443E+02
          0                 2           2             4    6     1       0.3419827908E-01       4    6    1         0.1853936067E+01      0.2393004677E+01
          0                 3           2             4    6     1       0.9121339819E-02       4    6    1         0.4988662149E+00      0.5186399760E+00
          0                 4           2             4    6     1       0.2432828713E-02       4    6    1         0.1325798349E+00      0.1329277086E+00
          0                 5           2             4    6     1       0.6488811233E-03       4    6    1         0.3539451319E-01      0.3539598081E-01
          0                 6           2             4    6     1       0.1730687804E-03       4    6    1         0.9439027982E-02      0.9439160209E-02
          0                 7           1             4    6     1       0.4616069700E-04       4    6    1         0.2517622683E-02      0.2517644231E-02

    ------------------------------------------------
       NWT REQUIRED            7 OUTER ITERATIONS 
       AND A TOTAL OF         13 INNER ITERATIONS.
    ------------------------------------------------

 NO OUTPUT CONTROL FOR STRESS PERIOD   10   TIME STEP   25
 
 SOLVING FOR HEAD 
                                                   Max.-Head-Change                         Max.-Flux-Residual
  Residual-Control   Outer-Iter.   Inner-Iter.     Column Row Layer    Maximum-Head-Change  Column Row Layer    Maximum-Flux-Residual          L2-NORM 
          0                 1           2             4    7     1       0.1359958599E+00       4    7    1         0.7157949058E+01      0.1418895838E+02
          0                 2           2             4    7     1      -0.1298967562E-01       4    7    1        -0.7154276165E+00      0.1295323105E+01
          0                 3           2             4    7     1       0.8838918173E-03       4    7    1         0.5015385345E-01      0.9274166992E-01
          0                 4           1             4    7     1      -0.3512760575E-04       4    7    1        -0.2059540296E-02      0.4090845495E-02

    ------------------------------------------------
       NWT REQUIRED            4 OUTER ITERATIONS 
       AND A TOTAL OF          7 INNER ITERATIONS.
    ------------------------------------------------

 NO OUTPUT CONTROL FOR STRESS PERIOD   10   TIME STEP   26
 
 SOLVING FOR HEAD 
                                                   Max.-Head-Change                         Max.-Flux-Residual
  Residual-Control   Outer-Iter.   Inner-Iter.     Column Row Layer    Maximum-Head-Change  Column Row Layer    Maximum-Flux-Residual          L2-NORM 
          0                 1           2             4    7     1       0.1344468834E+00       4    7    1         0.7078430556E+01      0.1394709306E+02
          0                 2           2             4    7     1      -0.1307123599E-01       4    7    1        -0.7074803879E+00      0.1394004844E+01
          0                 3           2             4    7     1       0.8894273790E-03       4    7    1         0.4948605629E-01      0.9751031111E-01
          0                 4           1             4    7     1      -0.3534679442E-04       4    7    1        -0.2021446860E-02      0.3983435884E-02

    ------------------------------------------------
       NWT REQUIRED            4 OUTER ITERATIONS 
       AND A TOTAL OF          7 INNER ITERATIONS.
    ------------------------------------------------

 NO OUTPUT CONTROL FOR STRESS PERIOD   10   TIME STEP   27
 
 SOLVING FOR HEAD 
                                                   Max.-Head-Change                         Max.-Flux-Residual
  Residual-Control   Outer-Iter.   Inner-Iter.     Column Row Layer    Maximum-Head-Change  Column Row Layer    Maximum-Flux-Residual          L2-NORM 
          0                 1           2             4    7     1       0.1326317994E+00       4    7    1         0.6985555680E+01      0.1322212846E+02
          0                 2           2             4    7     1      -0.1289477678E-01       4    7    1        -0.6981982148E+00      0.1321550623E+01
          0                 3           2             4    7     1       0.8774206210E-03       4    7    1         0.4883680584E-01      0.9244309096E-01
          0                 4           1             4    7     1      -0.3486966029E-04       4    7    1        -0.1994926736E-02      0.3776509474E-02

    ------------------------------------------------
       NWT REQUIRED            4 OUTER ITERATIONS 
       AND A TOTAL OF          7 INNER ITERATIONS.
    ------------------------------------------------

 NO OUTPUT CONTROL FOR STRESS PERIOD   10   TIME STEP   28
 
 SOLVING FOR HEAD 
                                                   Max.-Head-Change                         Max.-Flux-Residual
  Residual-Control   Outer-Iter.   Inner-Iter.     Column Row Layer    Maximum-Head-Change  Column Row Layer    Maximum-Flux-Residual          L2-NORM 
          0                 1           2             4    7     1       0.1307964159E+00       4    7    1         0.6891244713E+01      0.1294204307E+02
          0                 2           2             4    6     1      -0.1052549181E-01       4    6    1        -0.5985169502E+00      0.1102553894E+01
          0                 3           2             4    7     1       0.2025200773E-02       4    7    1         0.1086373416E+00      0.1352165738E+00
          0                 4           2             4    7     1       0.5417021039E-03       4    7    1         0.2954631986E-01      0.3155354898E-01
          0                 5           1             4    7     1       0.1448938559E-03       4    7    1         0.7884147159E-02      0.8370789605E-02
          0                 6           1             4    7     1       0.3875590982E-04       4    7    1         0.2108842616E-02      0.2234727909E-02

    ------------------------------------------------
       NWT REQUIRED            6 OUTER ITERATIONS 
       AND A TOTAL OF         10 INNER ITERATIONS.
    ------------------------------------------------

 NO OUTPUT CONTROL FOR STRESS PERIOD   10   TIME STEP   29
 
 SOLVING FOR HEAD 
                                                   Max.-Head-Change                         Max.-Flux-Residual
  Residual-Control   Outer-Iter.   Inner-Iter.     Column Row Layer    Maximum-Head-Change  Column Row Layer    Maximum-Flux-Residual          L2-NORM 
          0                 1           2             4    7     1       0.1278586649E+00       4    7    1         0.6735541475E+01      0.1266276061E+02
          0                 2           2             4    7     1       0.3473312365E-01       4    7    1         0.1883963867E+01      0.2403276426E+01
          0                 3           2             4    7     1       0.9358059376E-02       4    7    1         0.5065397816E+00      0.6331329005E+00
          0                 4           2             5    6     1       0.1540210075E-02       5    6    1         0.8426336273E-01      0.1108863895E+00
          0                 5           2             5    6     1       0.4086792937E-03       5    6    1         0.2237430525E-01      0.2705687973E-01
          0                 6           1             5    6     1       0.1084734626E-03       5    6    1         0.5936460102E-02      0.7190213854E-02
          0                 7           1             5    6     1       0.2880038543E-04       5    6    1         0.1575850378E-02      0.1921125866E-02

    ------------------------------------------------
       NWT REQUIRED            7 OUTER ITERATIONS 
       AND A TOTAL OF         12 INNER ITERATIONS.
    ------------------------------------------------

 NO OUTPUT CONTROL FOR STRESS PERIOD   10   TIME STEP   30



 STREAM LISTING     PERIOD     10   STEP       30

 LAYER ROW COL. STREAM  RCH.  FLOW INTO     FLOW TO   FLOW OUT OF   OVRLND.     DIRECT     STREAM       STREAM     STREAM     STREAM   STREAMBED  STREAMBED
                SEG.NO.  NO.  STRM. RCH.    AQUIFER    STRM. RCH.    RUNOFF     PRECIP       ET          HEAD       DEPTH      WIDTH   CONDCTNC.   GRADIENT

   1    1    1     1     1    4.7000E+01  3.2684E-01   4.6673E+01  0.000E+00  0.000E+00  0.000E+00  1.09443E+03  1.380E+00  1.658E+01  7.462E-02  1.460E+00
   1    2    2     1     2    4.6673E+01  5.0637E-01   4.6166E+01  0.000E+00  0.000E+00  0.000E+00  1.08944E+03  1.377E+00  1.653E+01  1.157E-01  1.459E+00
   1    3    3     1     3    4.6166E+01  4.3205E-01   4.5734E+01  0.000E+00  0.000E+00  0.000E+00  1.08379E+03  1.374E+00  1.646E+01  9.878E-02  1.458E+00
   1    3    4     1     4    4.5734E+01  3.9802E-01   4.5336E+01  0.000E+00  0.000E+00  0.000E+00  1.07878E+03  1.371E+00  1.641E+01  9.105E-02  1.457E+00
   1    4    5     2     1    4.3336E+01  3.6469E-01   4.2972E+01  0.000E+00  0.000E+00  0.000E+00  1.07361E+03  1.676E+00  1.200E+01  7.800E-02  1.559E+00
   1    5    6     2     2    4.2972E+01  2.8008E-01   4.2692E+01  0.000E+00  0.000E+00  0.000E+00  1.06818E+03  1.668E+00  1.200E+01  6.000E-02  1.556E+00
   1    6    6     2     3    4.2692E+01  2.7969E-01   4.2412E+01  0.000E+00  0.000E+00  0.000E+00  1.06345E+03  1.661E+00  1.200E+01  6.000E-02  1.554E+00
   1    7    6     2     4    4.2412E+01  2.7930E-01   4.2133E+01  0.000E+00  0.000E+00  0.000E+00  1.05873E+03  1.655E+00  1.200E+01  6.000E-02  1.552E+00
   1    8    6     2     5    4.2133E+01  2.7890E-01   4.1854E+01  0.000E+00  0.000E+00  0.000E+00  1.05401E+03  1.648E+00  1.200E+01  6.000E-02  1.549E+00
   1    3    5     3     1    2.0000E+00  2.8252E-01   1.7175E+00  0.000E+00  0.000E+00  0.000E+00  1.07555E+03  1.909E+00  9.636E+00  7.227E-02  1.955E+00
   1    3    6     3     2    1.7175E+00  2.4905E-01   1.4684E+00  0.000E+00  0.000E+00  0.000E+00  1.07264E+03  1.727E+00  8.909E+00  6.682E-02  1.864E+00
   1    3    7     3     3    1.4684E+00  1.9718E-01   1.2712E+00  0.000E+00  0.000E+00  0.000E+00  1.06987E+03  1.555E+00  8.218E+00  5.547E-02  1.777E+00
   1    4    8     3     4    1.2712E+00  2.2567E-01   1.0456E+00  0.000E+00  0.000E+00  0.000E+00  1.06682E+03  1.364E+00  7.455E+00  6.709E-02  1.682E+00
   1    5    8     3     5    1.0456E+00  1.5790E-01   8.8768E-01  0.000E+00  0.000E+00  0.000E+00  1.06362E+03  1.164E+00  6.655E+00  4.991E-02  1.582E+00
   1    6    8     3     6    8.8768E-01  5.5980E-02   8.3170E-01  0.000E+00  0.000E+00  0.000E+00  1.06158E+03  1.036E+00  6.145E+00  1.844E-02  1.518E+00
   1    5   10     4     1    1.0000E+01  9.0919E-02   9.9091E+00  0.000E+00  0.000E+00  0.000E+00  1.07836E+03  6.368E-01  1.000E+01  2.500E-02  1.212E+00
   1    5    9     4     2    9.9091E+00  1.8158E-01   9.7275E+00  0.000E+00  0.000E+00  0.000E+00  1.07154E+03  6.315E-01  1.000E+01  5.000E-02  1.211E+00
   1    6    8     4     3    9.7275E+00  1.2689E-01   9.6006E+00  0.000E+00  0.000E+00  0.000E+00  1.06381E+03  6.256E-01  1.000E+01  3.500E-02  1.209E+00
   1    6    8     5     1    1.0432E+01  2.2686E-01   1.0205E+01  0.000E+00  0.000E+00  0.000E+00  1.05868E+03  6.790E-01  1.542E+01  6.166E-02  1.226E+00
   1    7    7     5     2    1.0205E+01  2.7894E-01   9.9265E+00  0.000E+00  0.000E+00  0.000E+00  1.05417E+03  6.732E-01  1.519E+01  7.594E-02  1.224E+00
   1    8    7     5     3    9.9265E+00  1.9221E-01   9.7343E+00  0.000E+00  0.000E+00  0.000E+00  1.04992E+03  6.676E-01  1.497E+01  5.241E-02  1.223E+00
   1    8    6     5     4    9.7343E+00  1.3577E-01   9.5985E+00  0.000E+00  0.000E+00  0.000E+00  1.04691E+03  6.637E-01  1.482E+01  3.706E-02  1.221E+00
   1    9    6     6     1    5.1452E+01  2.9278E-01   5.1159E+01  0.000E+00  0.000E+00  0.000E+00  1.04461E+03  1.880E+00  1.200E+01  6.000E-02  1.627E+00
   1   10    7     6     2    5.1159E+01  2.9239E-01   5.0867E+01  0.000E+00  0.000E+00  0.000E+00  1.04005E+03  1.873E+00  1.200E+01  6.000E-02  1.624E+00
   1   11    7     6     3    5.0867E+01  2.9200E-01   5.0575E+01  0.000E+00  0.000E+00  0.000E+00  1.03550E+03  1.867E+00  1.200E+01  6.000E-02  1.622E+00
   1   12    7     6     4    5.0575E+01  2.9162E-01   5.0283E+01  0.000E+00  0.000E+00  0.000E+00  1.03095E+03  1.860E+00  1.200E+01  6.000E-02  1.620E+00
   1   13    7     6     5    5.0283E+01  1.2628E-02   5.0271E+01  0.000E+00  0.000E+00  0.000E+00  1.02777E+03  1.857E+00  1.200E+01  2.400E-02  1.754E-01
   1   14    9     7     1    1.5000E+02  1.3308E+00   1.4867E+02  0.000E+00  0.000E+00  0.000E+00  1.03987E+03  2.288E+00  5.529E+01  5.593E-01  7.931E-01
   1   13    8     7     2    1.4867E+02  1.7940E+00   1.4688E+02  0.000E+00  0.000E+00  0.000E+00  1.03478E+03  2.279E+00  5.526E+01  6.148E-01  9.727E-01
   1   13    7     7     3    1.4688E+02  1.3685E+00   1.4551E+02  0.000E+00  0.000E+00  0.000E+00  1.02969E+03  2.271E+00  5.522E+01  5.585E-01  8.168E-01
   1   13    6     8     1    1.9578E+02  9.1879E-01   1.9486E+02  0.000E+00  0.000E+00  0.000E+00  1.02498E+03  3.110E+00  4.509E+01  4.595E-01  6.665E-01
   1   13    5     8     2    1.9486E+02  1.4363E-01   1.9472E+02  0.000E+00  0.000E+00  0.000E+00  1.01873E+03  3.107E+00  4.505E+01  4.591E-01  1.043E-01
   1   13    4     8     3    1.9472E+02 -2.4950E+00   1.9721E+02  0.000E+00  0.000E+00  0.000E+00  1.01249E+03  3.114E+00  4.515E+01  4.601E+00 -1.808E-01
   1   13    3     8     4    1.9721E+02 -3.6164E+00   2.0083E+02  0.000E+00  0.000E+00  0.000E+00  1.00626E+03  3.132E+00  4.541E+01  4.628E+00 -2.605E-01
   1   13    2     8     5    2.0083E+02 -2.5915E+00   2.0342E+02  0.000E+00  0.000E+00  0.000E+00  1.00003E+03  3.150E+00  4.568E+01  4.655E+00 -1.856E-01
   1   13    1     8     6    2.0342E+02 -2.0171E+00   2.0544E+02  0.000E+00  0.000E+00  0.000E+00  9.95039E+02  3.164E+00  4.587E+01  2.805E+00 -2.397E-01





UNSATURATED ZONE PACKAGE VOLUMETRIC BUDGET FOR  TIME STEP    30 STRESS PERIOD   10
  ------------------------------------------------------------------------------



     CUMULATIVE VOLUMES      L**3       RATES FOR THIS TIME STEP      L**3/T
     ------------------                 ------------------------

           IN:                                      IN:
           ---                                      ---
        INFILTRATION =   496411508.6266          INFILTRATION =          12.0675

          OUT:                                     OUT:
          ----                                     ----
              UZF ET =   423948825.3147                UZF ET =          12.0675
        UZF RECHARGE =    53155613.9062          UZF RECHARGE =          30.8972

            IN - OUT =    19307069.4057              IN - OUT =         -30.8972

          STORAGE:                                 STORAGE:
          --------                                 --------
      STORAGE CHANGE =    19307075.4459        STORAGE CHANGE =         -30.8972

 PERCENT DISCREPANCY IS DIFFERENCE BETWEEN IN-OUT MINUS CHANGE IN STORAGE
 DIVIDED BY THE AVERAGE OF IN AND OUT TIMES 100

 PERCENT DISCREPANCY =           0.00     PERCENT DISCREPANCY =           0.00






1
  VOLUMETRIC BUDGET FOR AGRICULTURAL FIELDS AT  END OF TIME STEP   30, STRESS PERIOD  10
  ------------------------------------------------------------------------------

     CUMULATIVE VOLUMES      L**3       RATES FOR THIS TIME STEP      L**3/T
     ------------------                 ------------------------

           IN:                                      IN:
           ---                                      ---
               AG WELLS  =   476277312.0000                 AG WELLS  =          11.2200
      DIVERSION SEGMENTS =           0.0000        DIVERSION SEGMENTS =           0.0000
           GW IRRIGATION =           0.0000             GW IRRIGATION =           0.0000
           SW IRRIGATION =           0.0000             SW IRRIGATION =           0.0000
        SYSTEM LOSSES GW =           0.0000          SYSTEM LOSSES GW =           0.0000
        SYSTEM LOSSES SW =           0.0000          SYSTEM LOSSES SW =           0.0000

                TOTAL IN =   476277312.0000                  TOTAL IN =          11.2200

          OUT:                                     OUT:
          ----                                     ----
               AG WELLS  =           0.0000                 AG WELLS  =           0.0000
      DIVERSION SEGMENTS =           0.0000        DIVERSION SEGMENTS =           0.0000
           GW IRRIGATION =   476277312.0000             GW IRRIGATION =          11.2200
           SW IRRIGATION =           0.0000             SW IRRIGATION =           0.0000
        SYSTEM LOSSES GW =           0.0000          SYSTEM LOSSES GW =           0.0000
        SYSTEM LOSSES SW =           0.0000          SYSTEM LOSSES SW =           0.0000

               TOTAL OUT =   476277312.0000                 TOTAL OUT =          11.2200

                IN - OUT =           0.0000                  IN - OUT =           0.0000

     PERCENT DISCREPANCY =           0.00         PERCENT DISCREPANCY =           0.00



1
  VOLUMETRIC BUDGET FOR ENTIRE MODEL AT END OF TIME STEP   30, STRESS PERIOD  10
  ------------------------------------------------------------------------------

     CUMULATIVE VOLUMES      L**3       RATES FOR THIS TIME STEP      L**3/T
     ------------------                 ------------------------

           IN:                                      IN:
           ---                                      ---
             STORAGE     =   512634080.0000               STORAGE     =          16.8223
       CONSTANT HEAD     =           0.0000         CONSTANT HEAD     =           0.0000
     HEAD DEP BOUNDS     =     6781340.0000       HEAD DEP BOUNDS     =           0.2854
      STREAM LEAKAGE     =   302967680.0000        STREAM LEAKAGE     =          12.2846
        UZF RECHARGE     =    53155624.0000          UZF RECHARGE     =          30.8972
               GW ET     =           0.0000                 GW ET     =           0.0000
     SURFACE LEAKAGE     =           0.0000       SURFACE LEAKAGE     =           0.0000
           AG WELLS      =           0.0000             AG WELLS      =           0.0000

                TOTAL IN =   875538752.0000                  TOTAL IN =          60.2895

          OUT:                                     OUT:
          ----                                     ----
             STORAGE     =   137712496.0000               STORAGE     =          37.7940
       CONSTANT HEAD     =           0.0000         CONSTANT HEAD     =           0.0000
     HEAD DEP BOUNDS     =     7020252.5000       HEAD DEP BOUNDS     =           0.2948
      STREAM LEAKAGE     =   240804400.0000        STREAM LEAKAGE     =          10.7199
        UZF RECHARGE     =           0.0000          UZF RECHARGE     =           0.0000
               GW ET     =    13728949.0000                 GW ET     =           0.2599
     SURFACE LEAKAGE     =           0.0000       SURFACE LEAKAGE     =           0.0000
           AG WELLS      =   476277312.0000             AG WELLS      =          11.2200

               TOTAL OUT =   875543424.0000                 TOTAL OUT =          60.2886

                IN - OUT =       -4672.0000                  IN - OUT =       8.4686E-04

     PERCENT DISCREPANCY =          -0.00         PERCENT DISCREPANCY =           0.00






         TIME SUMMARY AT END OF TIME STEP   30 IN STRESS PERIOD   10
                    SECONDS     MINUTES      HOURS       DAYS        YEARS
                    -----------------------------------------------------------
   TIME STEP LENGTH  87667.      1461.1      24.352      1.0147     2.77799E-03
 STRESS PERIOD TIME 2.63000E+06  43833.      730.56      30.440     8.33397E-02
         TOTAL TIME 2.37564E+07 3.95940E+05  6599.0      274.96     0.75279    
1
1
                            STRESS PERIOD NO.   11, LENGTH =   2630000.    
                            -----------------------------------------------

                              NUMBER OF TIME STEPS =    30

                               MULTIPLIER FOR DELT =     1.000

                            INITIAL TIME STEP SIZE =   87666.66    

 REUSING NON-PARAMETER GHB CELLS FROM LAST STRESS PERIOD

      2 GHB CELLS

 REUSING STREAM SEGMENT DATA FROM LAST STRESS PERIOD



            AREAL INFILTRATION RATE
 READING ON UNIT   19 WITH FORMAT: (FREE)              

            1           2           3           4           5           6           7           8           9          10
 ........................................................................................................................
   1   1.0000E-10  2.0000E-10   0.000       0.000       0.000       0.000       0.000       0.000       0.000       0.000    
   2   2.0000E-10  1.0000E-10  2.0000E-10   0.000       0.000      8.0000E-10  8.0000E-10  5.0000E-10   0.000       0.000    
   3    0.000      5.0000E-10  1.0000E-10  1.0000E-10  8.0000E-10  8.0000E-10  5.0000E-10  5.0000E-10   0.000       0.000    
   4   8.0000E-10  5.0000E-10  1.0000E-10  1.0000E-10  1.0000E-10  1.0000E-10  1.0000E-10  1.0000E-10  2.0000E-10   0.000    
   5   8.0000E-10  5.0000E-10  1.0000E-10  1.0000E-10  1.0000E-10  1.0000E-10  1.0000E-10  1.0000E-10  1.0000E-10  1.0000E-10
   6   8.0000E-10  5.0000E-10  5.0000E-10  2.0000E-10  2.0000E-10  1.0000E-10  1.0000E-10  1.0000E-10  1.0000E-10  5.0000E-10
   7   8.0000E-10  5.0000E-10  5.0000E-10  2.0000E-10  2.0000E-10  1.0000E-10  1.0000E-10  2.0000E-10  2.0000E-10   0.000    
   8    0.000      5.0000E-10  5.0000E-10  2.0000E-10  2.0000E-10  1.0000E-10  1.0000E-10  2.0000E-10  5.0000E-10   0.000    
   9    0.000      5.0000E-10  5.0000E-10  2.0000E-10  2.0000E-10  1.0000E-10  1.0000E-10  2.0000E-10  5.0000E-10   0.000    
  10    0.000      5.0000E-10  5.0000E-10  2.0000E-10  2.0000E-10  1.0000E-10  1.0000E-10  2.0000E-10  5.0000E-10  8.0000E-10
  11    0.000      1.0000E-10  1.0000E-10  1.0000E-10  1.0000E-10  1.0000E-10  1.0000E-10  2.0000E-10  5.0000E-10   0.000    
  12   1.0000E-10  1.0000E-10  1.0000E-10  1.0000E-10  1.0000E-10  1.0000E-10  1.0000E-10  1.0000E-10  2.0000E-10   0.000    
  13   1.0000E-10  1.0000E-10  2.0000E-10  2.0000E-10  2.0000E-10  2.0000E-10  2.0000E-10  1.0000E-10  1.0000E-10   0.000    
  14    0.000      2.0000E-10  5.0000E-10  5.0000E-10  5.0000E-10  5.0000E-10  5.0000E-10  2.0000E-10  1.0000E-10   0.000    
  15    0.000       0.000      8.0000E-10  8.0000E-10  8.0000E-10  8.0000E-10   0.000       0.000       0.000       0.000    

                  ET RATE =  5.000000E-09

 USING ET EXTINCTION DEPTH FROM PREVIOUS STRESS PERIOD. CURRENT PERIOD IS:      11

 USING EXTINCTION WATER CONTENT FROM PREVIOUS STRESS PERIOD. CURRENT PERIOD IS:      11

 USING AIR ENTRY PRESSURE FROM PREVIOUS STRESS PERIOD. CURRENT PERIOD IS:      11

 USING ROOT PRESSURE HEAD FROM PREVIOUS STRESS PERIOD. CURRENT PERIOD IS:      11

 USING ROOT ACTIVITY FROM PREVIOUS STRESS PERIOD. CURRENT PERIOD IS:      11

 PROCESSING AG STRESS PERIOD DATA

 READING AG STRESS PERIOD DATA

 READING IRRIGATION WELL

 END PROCESSING AG STRESS PERIOD DATA OPTIONS
 
 SOLVING FOR HEAD 
                                                   Max.-Head-Change                         Max.-Flux-Residual
  Residual-Control   Outer-Iter.   Inner-Iter.     Column Row Layer    Maximum-Head-Change  Column Row Layer    Maximum-Flux-Residual          L2-NORM 
          0                 1           2             4    7     1       0.1598007974E+00       4    7    1         0.8398433634E+01      0.1648716886E+02
          0                 2           2             4    6     1       0.3811075678E-01       4    6    1         0.2073739871E+01      0.3646507237E+01
          0                 3           2             4    6     1       0.1017219257E-01       4    6    1         0.5552614280E+00      0.9054502134E+00
          0                 4           2             4    6     1       0.2713638151E-02       4    6    1         0.1479080878E+00      0.2031122825E+00
          0                 5           2             4    6     1       0.7237985619E-03       4    6    1         0.3947710104E-01      0.4015044350E-01
          0                 6           2             4    6     1       0.1930388780E-03       4    6    1         0.1052850464E-01      0.1055134926E-01
          0                 7           1             4    6     1       0.5148395102E-04       4    6    1         0.2807984926E-02      0.2808422981E-02

    ------------------------------------------------
       NWT REQUIRED            7 OUTER ITERATIONS 
       AND A TOTAL OF         13 INNER ITERATIONS.
    ------------------------------------------------

 NO OUTPUT CONTROL FOR STRESS PERIOD   11   TIME STEP    1
 
 SOLVING FOR HEAD 
                                                   Max.-Head-Change                         Max.-Flux-Residual
  Residual-Control   Outer-Iter.   Inner-Iter.     Column Row Layer    Maximum-Head-Change  Column Row Layer    Maximum-Flux-Residual          L2-NORM 
          0                 1           2             4    7     1       0.1604257970E+00       4    7    1         0.8445325138E+01      0.1609848189E+02
          0                 2           2             4    7     1      -0.1542005800E-01       4    7    1        -0.8441058962E+00      0.1428869683E+01
          0                 3           2             4    7     1       0.1049262910E-02       4    7    1         0.5904320251E-01      0.9994733891E-01
          0                 4           1             4    7     1      -0.4169940635E-04       4    7    1        -0.2411879147E-02      0.4082894361E-02

    ------------------------------------------------
       NWT REQUIRED            4 OUTER ITERATIONS 
       AND A TOTAL OF          7 INNER ITERATIONS.
    ------------------------------------------------

 NO OUTPUT CONTROL FOR STRESS PERIOD   11   TIME STEP    2
 
 SOLVING FOR HEAD 
                                                   Max.-Head-Change                         Max.-Flux-Residual
  Residual-Control   Outer-Iter.   Inner-Iter.     Column Row Layer    Maximum-Head-Change  Column Row Layer    Maximum-Flux-Residual          L2-NORM 
          0                 1           2             4    7     1       0.1584697808E+00       4    7    1         0.8344836124E+01      0.1582410790E+02
          0                 2           2             4    7     1      -0.1540690072E-01       4    7    1        -0.8340626682E+00      0.1581595779E+01
          0                 3           2             4    7     1       0.1048358828E-02       4    7    1         0.5834017999E-01      0.1106298875E+00
          0                 4           1             4    7     1      -0.4166293554E-04       4    7    1        -0.2383128228E-02      0.4519222822E-02

    ------------------------------------------------
       NWT REQUIRED            4 OUTER ITERATIONS 
       AND A TOTAL OF          7 INNER ITERATIONS.
    ------------------------------------------------

 NO OUTPUT CONTROL FOR STRESS PERIOD   11   TIME STEP    3
 
 SOLVING FOR HEAD 
                                                   Max.-Head-Change                         Max.-Flux-Residual
  Residual-Control   Outer-Iter.   Inner-Iter.     Column Row Layer    Maximum-Head-Change  Column Row Layer    Maximum-Flux-Residual          L2-NORM 
          0                 1           2             4    7     1       0.1563324908E+00       4    7    1         0.8233754620E+01      0.1556582598E+02
          0                 2           2             4    7     1       0.2204511689E-01       4    7    1         0.1228014315E+01      0.1803113398E+01
          0                 3           2             4    7     1       0.5894736507E-02       4    7    1         0.3189760231E+00      0.3322866225E+00
          0                 4           1             4    7     1       0.1576217417E-02       4    7    1         0.8588596202E-01      0.8595386349E-01
          0                 5           1             4    7     1       0.4214707286E-03       4    7    1         0.2294170324E-01      0.2294275895E-01
          0                 6           1             4    7     1       0.1126986718E-03       4    7    1         0.6134237329E-02      0.6134610873E-02
          0                 7           1             4    7     1       0.3013492956E-04       4    7    1         0.1640254911E-02      0.1640356260E-02

    ------------------------------------------------
       NWT REQUIRED            7 OUTER ITERATIONS 
       AND A TOTAL OF         10 INNER ITERATIONS.
    ------------------------------------------------

 NO OUTPUT CONTROL FOR STRESS PERIOD   11   TIME STEP    4
 
 SOLVING FOR HEAD 
                                                   Max.-Head-Change                         Max.-Flux-Residual
  Residual-Control   Outer-Iter.   Inner-Iter.     Column Row Layer    Maximum-Head-Change  Column Row Layer    Maximum-Flux-Residual          L2-NORM 
          0                 1           2             4    7     1       0.1520034934E+00       4    7    1         0.8001563538E+01      0.1529811645E+02
          0                 2           2             4    7     1       0.2034315588E-01       4    7    1         0.1135023697E+01      0.1728179910E+01
          0                 3           2             4    7     1      -0.1977791972E-02       4    7    1        -0.1126406864E+00      0.1453431834E+00
          0                 4           1             4    7     1       0.1345840786E-03       4    7    1         0.7824836933E-02      0.8707460777E-02
          0                 5           1             4    7     1      -0.5348798955E-05       4    7    1        -0.3174973199E-03      0.3218781732E-03

    ------------------------------------------------
       NWT REQUIRED            5 OUTER ITERATIONS 
       AND A TOTAL OF          8 INNER ITERATIONS.
    ------------------------------------------------

 NO OUTPUT CONTROL FOR STRESS PERIOD   11   TIME STEP    5
 
 SOLVING FOR HEAD 
                                                   Max.-Head-Change                         Max.-Flux-Residual
  Residual-Control   Outer-Iter.   Inner-Iter.     Column Row Layer    Maximum-Head-Change  Column Row Layer    Maximum-Flux-Residual          L2-NORM 
          0                 1           2             4    7     1       0.1473582806E+00       4    7    1         0.7809388508E+01      0.1387514110E+02
          0                 2           2             4    6     1       0.2469542266E-01       4    6    1         0.1352983408E+01      0.1783384147E+01
          0                 3           2             4    6     1       0.6631898759E-02       4    6    1         0.3590337256E+00      0.3853647429E+00
          0                 4           2             4    6     1       0.1781517323E-02       4    6    1         0.9669185488E-01      0.1022556485E+00
          0                 5           2             4    6     1       0.4787034650E-03       4    6    1         0.2596569260E-01      0.2756224491E-01
          0                 6           2             4    6     1       0.1286659677E-03       4    6    1         0.6977619940E-02      0.7437388414E-02
          0                 7           1             4    6     1       0.3459214659E-04       4    6    1         0.1875583071E-02      0.2007404003E-02

    ------------------------------------------------
       NWT REQUIRED            7 OUTER ITERATIONS 
       AND A TOTAL OF         13 INNER ITERATIONS.
    ------------------------------------------------

 NO OUTPUT CONTROL FOR STRESS PERIOD   11   TIME STEP    6
 
 SOLVING FOR HEAD 
                                                   Max.-Head-Change                         Max.-Flux-Residual
  Residual-Control   Outer-Iter.   Inner-Iter.     Column Row Layer    Maximum-Head-Change  Column Row Layer    Maximum-Flux-Residual          L2-NORM 
          0                 1           2             4    7     1       0.1434847975E+00       4    7    1         0.7683764293E+01      0.1227669683E+02
          0                 2           2             5    6     1       0.2664078952E-01       5    6    1         0.1456012022E+01      0.2083821303E+01
          0                 3           2             5    6     1       0.6990934163E-02       5    6    1         0.3873921305E+00      0.4102695906E+00
          0                 4           2             5    6     1       0.1834519454E-02       5    6    1         0.1011181996E+00      0.1015099883E+00
          0                 5           2             5    6     1       0.4814047771E-03       5    6    1         0.2657051832E-01      0.2657218213E-01
          0                 6           2             5    6     1       0.1263276591E-03       5    6    1         0.6971038811E-02      0.6971206563E-02
          0                 7           1             5    6     1       0.3315022991E-04       5    6    1         0.1829362327E-02      0.1829391461E-02

    ------------------------------------------------
       NWT REQUIRED            7 OUTER ITERATIONS 
       AND A TOTAL OF         13 INNER ITERATIONS.
    ------------------------------------------------

 NO OUTPUT CONTROL FOR STRESS PERIOD   11   TIME STEP    7
 
 SOLVING FOR HEAD 
                                                   Max.-Head-Change                         Max.-Flux-Residual
  Residual-Control   Outer-Iter.   Inner-Iter.     Column Row Layer    Maximum-Head-Change  Column Row Layer    Maximum-Flux-Residual          L2-NORM 
          0                 1           2             4    7     1       0.1397759821E+00       4    7    1         0.7481526904E+01      0.1089835906E+02
          0                 2           2             4    7     1      -0.1358983151E-01       4    7    1        -0.7478015755E+00      0.1089317800E+01
          0                 3           2             4    7     1       0.9247249656E-03       4    7    1         0.5230692686E-01      0.7619860932E-01
          0                 4           1             4    7     1      -0.3675032478E-04       4    7    1        -0.2136721132E-02      0.3112870852E-02

    ------------------------------------------------
       NWT REQUIRED            4 OUTER ITERATIONS 
       AND A TOTAL OF          7 INNER ITERATIONS.
    ------------------------------------------------

 NO OUTPUT CONTROL FOR STRESS PERIOD   11   TIME STEP    8
 
 SOLVING FOR HEAD 
                                                   Max.-Head-Change                         Max.-Flux-Residual
  Residual-Control   Outer-Iter.   Inner-Iter.     Column Row Layer    Maximum-Head-Change  Column Row Layer    Maximum-Flux-Residual          L2-NORM 
          0                 1           2             4    7     1       0.1357515337E+00       4    7    1         0.7262473790E+01      0.1059595666E+02
          0                 2           2             4    7     1       0.2381438449E-01       4    7    1         0.1312869351E+01      0.1522614403E+01
          0                 3           2             4    7     1       0.6352985430E-02       4    7    1         0.3454646702E+00      0.3497613952E+00
          0                 4           1             4    7     1       0.1694795447E-02       4    7    1         0.9245858489E-01      0.9247800799E-01
          0                 5           1             4    7     1       0.4521230800E-03       4    7    1         0.2465313187E-01      0.2465382296E-01
          0                 6           1             4    7     1       0.1206135642E-03       4    7    1         0.6576857447E-02      0.6577039887E-02
          0                 7           1             4    7     1       0.3217626549E-04       4    7    1         0.1754508335E-02      0.1754559244E-02

    ------------------------------------------------
       NWT REQUIRED            7 OUTER ITERATIONS 
       AND A TOTAL OF         10 INNER ITERATIONS.
    ------------------------------------------------

 NO OUTPUT CONTROL FOR STRESS PERIOD   11   TIME STEP    9
 
 SOLVING FOR HEAD 
                                                   Max.-Head-Change                         Max.-Flux-Residual
  Residual-Control   Outer-Iter.   Inner-Iter.     Column Row Layer    Maximum-Head-Change  Column Row Layer    Maximum-Flux-Residual          L2-NORM 
          0                 1           2             4    6     1       0.1148856900E+00       4    6    1         0.6179796881E+01      0.8720884271E+01
          0                 2           2             4    6     1      -0.1116960689E-01       4    6    1        -0.6176709238E+00      0.8715956520E+00
          0                 3           2             4    6     1       0.7600469464E-03       4    6    1         0.4320495025E-01      0.6097051361E-01
          0                 4           1             4    6     1      -0.3020598407E-04       4    6    1        -0.1764918180E-02      0.2490918636E-02

    ------------------------------------------------
       NWT REQUIRED            4 OUTER ITERATIONS 
       AND A TOTAL OF          7 INNER ITERATIONS.
    ------------------------------------------------

 NO OUTPUT CONTROL FOR STRESS PERIOD   11   TIME STEP   10
 
 SOLVING FOR HEAD 
                                                   Max.-Head-Change                         Max.-Flux-Residual
  Residual-Control   Outer-Iter.   Inner-Iter.     Column Row Layer    Maximum-Head-Change  Column Row Layer    Maximum-Flux-Residual          L2-NORM 
          0                 1           2             4    6     1       0.1105612277E+00       4    6    1         0.5969296308E+01      0.7779516434E+01
          0                 2           2             4    6     1      -0.1074929092E-01       4    6    1        -0.5966397337E+00      0.7776002583E+00
          0                 3           2             4    6     1       0.7314471966E-03       4    6    1         0.4173390322E-01      0.5439637731E-01
          0                 4           1             4    6     1      -0.2906950829E-04       4    6    1        -0.1704834100E-02      0.2222379814E-02

    ------------------------------------------------
       NWT REQUIRED            4 OUTER ITERATIONS 
       AND A TOTAL OF          7 INNER ITERATIONS.
    ------------------------------------------------

 NO OUTPUT CONTROL FOR STRESS PERIOD   11   TIME STEP   11
 
 SOLVING FOR HEAD 
                                                   Max.-Head-Change                         Max.-Flux-Residual
  Residual-Control   Outer-Iter.   Inner-Iter.     Column Row Layer    Maximum-Head-Change  Column Row Layer    Maximum-Flux-Residual          L2-NORM 
          0                 1           2             4    6     1       0.1064853627E+00       4    6    1         0.5744603123E+01      0.7592930890E+01
          0                 2           2             4    6     1       0.1985579715E-01       4    6    1         0.1089612742E+01      0.1197322051E+01
          0                 3           2             4    6     1       0.5294980648E-02       4    6    1         0.2883812146E+00      0.2905145111E+00
          0                 4           2             4    6     1       0.1412025296E-02       4    6    1         0.7703695538E-01      0.7704744081E-01
          0                 5           2             4    6     1       0.3765482412E-03       4    6    1         0.2053817658E-01      0.2053859722E-01
          0                 6           1             4    6     1       0.1004150540E-03       4    6    1         0.5477189985E-02      0.5477251892E-02
          0                 7           1             4    6     1       0.2677793226E-04       4    6    1         0.1460606802E-02      0.1460625108E-02

    ------------------------------------------------
       NWT REQUIRED            7 OUTER ITERATIONS 
       AND A TOTAL OF         12 INNER ITERATIONS.
    ------------------------------------------------

 NO OUTPUT CONTROL FOR STRESS PERIOD   11   TIME STEP   12
 
 SOLVING FOR HEAD 
                                                   Max.-Head-Change                         Max.-Flux-Residual
  Residual-Control   Outer-Iter.   Inner-Iter.     Column Row Layer    Maximum-Head-Change  Column Row Layer    Maximum-Flux-Residual          L2-NORM 
          0                 1           2             4    6     1       0.1007457716E+00       4    6    1         0.5428009942E+01      0.7360303687E+01
          0                 2           2             4    6     1       0.2686560199E-01       4    6    1         0.1472380539E+01      0.1553967858E+01
          0                 3           2             4    6     1       0.4048056602E-02       4    6    1         0.2203280908E+00      0.2231481405E+00
          0                 4           2             4    6     1      -0.3935598007E-03       4    6    1        -0.2206005925E-01      0.2209805044E-01
          0                 5           1             4    6     1       0.2678047284E-04       4    6    1         0.1544617834E-02      0.1544933472E-02

    ------------------------------------------------
       NWT REQUIRED            5 OUTER ITERATIONS 
       AND A TOTAL OF          9 INNER ITERATIONS.
    ------------------------------------------------

 NO OUTPUT CONTROL FOR STRESS PERIOD   11   TIME STEP   13
 
 SOLVING FOR HEAD 
                                                   Max.-Head-Change                         Max.-Flux-Residual
  Residual-Control   Outer-Iter.   Inner-Iter.     Column Row Layer    Maximum-Head-Change  Column Row Layer    Maximum-Flux-Residual          L2-NORM 
          0                 1           2             4    7     1       0.4508631977E-01       4    7    1         0.2396860865E+01      0.5008496183E+01
          0                 2           2             4    7     1      -0.4383365294E-02       4    7    1        -0.2395608503E+00      0.5006599267E+00
          0                 3           2             4    7     1       0.2982679430E-03       4    7    1         0.1675673420E-01      0.3502770517E-01
          0                 4           1             4    7     1      -0.1185363248E-04       4    7    1        -0.6845008900E-03      0.1431373856E-02

    ------------------------------------------------
       NWT REQUIRED            4 OUTER ITERATIONS 
       AND A TOTAL OF          7 INNER ITERATIONS.
    ------------------------------------------------

 NO OUTPUT CONTROL FOR STRESS PERIOD   11   TIME STEP   14
 
 SOLVING FOR HEAD 
                                                   Max.-Head-Change                         Max.-Flux-Residual
  Residual-Control   Outer-Iter.   Inner-Iter.     Column Row Layer    Maximum-Head-Change  Column Row Layer    Maximum-Flux-Residual          L2-NORM 
          0                 1           2             4    7     1       0.4409574978E-01       4    7    1         0.2342610807E+01      0.4926768779E+01
          0                 2           2             4    7     1      -0.4287057890E-02       4    7    1        -0.2341385118E+00      0.4924906375E+00
          0                 3           2             4    7     1       0.2917145434E-03       4    7    1         0.1637744649E-01      0.3445618950E-01
          0                 4           1             4    7     1      -0.1159318127E-04       4    7    1        -0.6690066864E-03      0.1408042704E-02

    ------------------------------------------------
       NWT REQUIRED            4 OUTER ITERATIONS 
       AND A TOTAL OF          7 INNER ITERATIONS.
    ------------------------------------------------

 NO OUTPUT CONTROL FOR STRESS PERIOD   11   TIME STEP   15
 
 SOLVING FOR HEAD 
                                                   Max.-Head-Change                         Max.-Flux-Residual
  Residual-Control   Outer-Iter.   Inner-Iter.     Column Row Layer    Maximum-Head-Change  Column Row Layer    Maximum-Flux-Residual          L2-NORM 
          0                 1           2             4    7     1       0.4315476140E-01       4    7    1         0.2291141281E+01      0.4848700442E+01
          0                 2           2             4    7     1      -0.4195571079E-02       4    7    1        -0.2289940944E+00      0.4846663038E+00
          0                 3           2             4    7     1       0.2854891746E-03       4    7    1         0.1601759943E-01      0.3390880963E-01
          0                 4           1             4    7     1      -0.1134576745E-04       4    7    1        -0.6543066738E-03      0.1385672416E-02

    ------------------------------------------------
       NWT REQUIRED            4 OUTER ITERATIONS 
       AND A TOTAL OF          7 INNER ITERATIONS.
    ------------------------------------------------

 NO OUTPUT CONTROL FOR STRESS PERIOD   11   TIME STEP   16
 
 SOLVING FOR HEAD 
                                                   Max.-Head-Change                         Max.-Flux-Residual
  Residual-Control   Outer-Iter.   Inner-Iter.     Column Row Layer    Maximum-Head-Change  Column Row Layer    Maximum-Flux-Residual          L2-NORM 
          0                 1           2             4    7     1       0.4225977290E-01       4    7    1         0.2242249808E+01      0.4773965399E+01
          0                 2           2             4    7     1      -0.4108556687E-02       4    7    1        -0.2241073602E+00      0.4772166859E+00
          0                 3           2             4    7     1       0.2795681441E-03       4    7    1         0.1567577736E-01      0.3338763060E-01
          0                 4           1             4    7     1      -0.1111044929E-04       4    7    1        -0.6403430154E-03      0.1364358158E-02

    ------------------------------------------------
       NWT REQUIRED            4 OUTER ITERATIONS 
       AND A TOTAL OF          7 INNER ITERATIONS.
    ------------------------------------------------

 NO OUTPUT CONTROL FOR STRESS PERIOD   11   TIME STEP   17
 
 SOLVING FOR HEAD 
                                                   Max.-Head-Change                         Max.-Flux-Residual
  Residual-Control   Outer-Iter.   Inner-Iter.     Column Row Layer    Maximum-Head-Change  Column Row Layer    Maximum-Flux-Residual          L2-NORM 
          0                 1           2             4    7     1       0.4140737361E-01       4    7    1         0.2195743351E+01      0.4702295600E+01
          0                 2           2             4    7     1      -0.4025683048E-02       4    7    1        -0.2194590145E+00      0.4700526116E+00
          0                 3           2             4    7     1       0.2739288826E-03       4    7    1         0.1535063061E-01      0.3288643612E-01
          0                 4           1             4    7     1      -0.1088632958E-04       4    7    1        -0.6270605722E-03      0.1343895183E-02

    ------------------------------------------------
       NWT REQUIRED            4 OUTER ITERATIONS 
       AND A TOTAL OF          7 INNER ITERATIONS.
    ------------------------------------------------

 NO OUTPUT CONTROL FOR STRESS PERIOD   11   TIME STEP   18
 
 SOLVING FOR HEAD 
                                                   Max.-Head-Change                         Max.-Flux-Residual
  Residual-Control   Outer-Iter.   Inner-Iter.     Column Row Layer    Maximum-Head-Change  Column Row Layer    Maximum-Flux-Residual          L2-NORM 
          0                 1           2             4    7     1       0.4059469784E-01       4    7    1         0.2151459729E+01      0.4633409610E+01
          0                 2           2             4    7     1      -0.3946671563E-02       4    7    1        -0.2150328471E+00      0.4631667383E+00
          0                 3           2             4    7     1       0.2685524316E-03       4    7    1         0.1504102525E-01      0.3240468461E-01
          0                 4           1             4    7     1      -0.1067265517E-04       4    7    1        -0.6144130207E-03      0.1324191418E-02

    ------------------------------------------------
       NWT REQUIRED            4 OUTER ITERATIONS 
       AND A TOTAL OF          7 INNER ITERATIONS.
    ------------------------------------------------

 NO OUTPUT CONTROL FOR STRESS PERIOD   11   TIME STEP   19
 
 SOLVING FOR HEAD 
                                                   Max.-Head-Change                         Max.-Flux-Residual
  Residual-Control   Outer-Iter.   Inner-Iter.     Column Row Layer    Maximum-Head-Change  Column Row Layer    Maximum-Flux-Residual          L2-NORM 
          0                 1           2             4    7     1       0.3981871534E-01       4    7    1         0.2109228380E+01      0.4567061934E+01
          0                 2           2             4    7     1      -0.3871227614E-02       4    7    1        -0.2108118098E+00      0.4565345751E+00
          0                 3           2             4    7     1       0.2634187433E-03       4    7    1         0.1474576876E-01      0.3194066774E-01
          0                 4           1             4    7     1      -0.1046862915E-04       4    7    1        -0.6023516496E-03      0.1305236777E-02

    ------------------------------------------------
       NWT REQUIRED            4 OUTER ITERATIONS 
       AND A TOTAL OF          7 INNER ITERATIONS.
    ------------------------------------------------

 NO OUTPUT CONTROL FOR STRESS PERIOD   11   TIME STEP   20
 
 SOLVING FOR HEAD 
                                                   Max.-Head-Change                         Max.-Flux-Residual
  Residual-Control   Outer-Iter.   Inner-Iter.     Column Row Layer    Maximum-Head-Change  Column Row Layer    Maximum-Flux-Residual          L2-NORM 
          0                 1           2             4    7     1       0.3907717724E-01       4    7    1         0.2068921501E+01      0.4503062190E+01
          0                 2           2             4    7     1      -0.3799132551E-02       4    7    1        -0.2067831283E+00      0.4501371022E+00
          0                 3           2             4    7     1       0.2585129388E-03       4    7    1         0.1446396757E-01      0.3149312035E-01
          0                 4           1             4    7     1      -0.1027365986E-04       4    7    1        -0.5908399487E-03      0.1286989757E-02

    ------------------------------------------------
       NWT REQUIRED            4 OUTER ITERATIONS 
       AND A TOTAL OF          7 INNER ITERATIONS.
    ------------------------------------------------

 NO OUTPUT CONTROL FOR STRESS PERIOD   11   TIME STEP   21
 
 SOLVING FOR HEAD 
                                                   Max.-Head-Change                         Max.-Flux-Residual
  Residual-Control   Outer-Iter.   Inner-Iter.     Column Row Layer    Maximum-Head-Change  Column Row Layer    Maximum-Flux-Residual          L2-NORM 
          0                 1           2             4    7     1       0.3836736009E-01       4    7    1         0.2030385850E+01      0.4441238372E+01
          0                 2           2             4    7     1      -0.3730121584E-02       4    7    1        -0.2029314858E+00      0.4439571387E+00
          0                 3           2             4    7     1       0.2538169993E-03       4    7    1         0.1419455026E-01      0.3106074594E-01
          0                 4           1             4    7     1      -0.1008703135E-04       4    7    1        -0.5798341444E-03      0.1269285669E-02

    ------------------------------------------------
       NWT REQUIRED            4 OUTER ITERATIONS 
       AND A TOTAL OF          7 INNER ITERATIONS.
    ------------------------------------------------

 NO OUTPUT CONTROL FOR STRESS PERIOD   11   TIME STEP   22
 
 SOLVING FOR HEAD 
                                                   Max.-Head-Change                         Max.-Flux-Residual
  Residual-Control   Outer-Iter.   Inner-Iter.     Column Row Layer    Maximum-Head-Change  Column Row Layer    Maximum-Flux-Residual          L2-NORM 
          0                 1           2             4    7     1       0.3768715667E-01       4    7    1         0.1993502207E+01      0.4381411662E+01
          0                 2           2             4    7     1      -0.3663989837E-02       4    7    1        -0.1992449656E+00      0.4379767607E+00
          0                 3           2             4    7     1       0.2493169840E-03       4    7    1         0.1393668323E-01      0.3064235024E-01
          0                 4           1             4    7     1      -0.9908189945E-05       4    7    1        -0.5693002097E-03      0.1252216737E-02

    ------------------------------------------------
       NWT REQUIRED            4 OUTER ITERATIONS 
       AND A TOTAL OF          7 INNER ITERATIONS.
    ------------------------------------------------

 NO OUTPUT CONTROL FOR STRESS PERIOD   11   TIME STEP   23
 
 SOLVING FOR HEAD 
                                                   Max.-Head-Change                         Max.-Flux-Residual
  Residual-Control   Outer-Iter.   Inner-Iter.     Column Row Layer    Maximum-Head-Change  Column Row Layer    Maximum-Flux-Residual          L2-NORM 
          0                 1           2             4    7     1       0.3703462773E-01       4    7    1         0.1958161317E+01      0.4323445742E+01
          0                 2           2             4    7     1      -0.3600548762E-02       4    7    1        -0.1957126475E+00      0.4321823900E+00
          0                 3           2             4    7     1       0.2450000621E-03       4    7    1         0.1368960264E-01      0.3023691902E-01
          0                 4           1             4    7     1      -0.9736625528E-05       4    7    1        -0.5592069103E-03      0.1235578973E-02

    ------------------------------------------------
       NWT REQUIRED            4 OUTER ITERATIONS 
       AND A TOTAL OF          7 INNER ITERATIONS.
    ------------------------------------------------

 NO OUTPUT CONTROL FOR STRESS PERIOD   11   TIME STEP   24
 
 SOLVING FOR HEAD 
                                                   Max.-Head-Change                         Max.-Flux-Residual
  Residual-Control   Outer-Iter.   Inner-Iter.     Column Row Layer    Maximum-Head-Change  Column Row Layer    Maximum-Flux-Residual          L2-NORM 
          0                 1           2             4    7     1       0.3640799722E-01       4    7    1         0.1924262633E+01      0.4267204344E+01
          0                 2           2             4    7     1      -0.3539625682E-02       4    7    1        -0.1923244815E+00      0.4265604137E+00
          0                 3           2             4    7     1       0.2408544832E-03       4    7    1         0.1345260546E-01      0.2984360924E-01
          0                 4           1             4    7     1      -0.9571870449E-05       4    7    1        -0.5495255321E-03      0.1219576118E-02

    ------------------------------------------------
       NWT REQUIRED            4 OUTER ITERATIONS 
       AND A TOTAL OF          7 INNER ITERATIONS.
    ------------------------------------------------

 NO OUTPUT CONTROL FOR STRESS PERIOD   11   TIME STEP   25
 
 SOLVING FOR HEAD 
                                                   Max.-Head-Change                         Max.-Flux-Residual
  Residual-Control   Outer-Iter.   Inner-Iter.     Column Row Layer    Maximum-Head-Change  Column Row Layer    Maximum-Flux-Residual          L2-NORM 
          0                 1           2             4    7     1       0.3580536560E-01       4    7    1         0.1891699410E+01      0.4212576303E+01
          0                 2           2             4    7     1      -0.3481035910E-02       4    7    1        -0.1890697981E+00      0.4210991462E+00
          0                 3           2             4    7     1       0.2368676798E-03       4    7    1         0.1322494537E-01      0.2946153585E-01
          0                 4           1             4    7     1      -0.9413425628E-05       4    7    1        -0.5402255799E-03      0.1203923704E-02

    ------------------------------------------------
       NWT REQUIRED            4 OUTER ITERATIONS 
       AND A TOTAL OF          7 INNER ITERATIONS.
    ------------------------------------------------

 NO OUTPUT CONTROL FOR STRESS PERIOD   11   TIME STEP   26
 
 SOLVING FOR HEAD 
                                                   Max.-Head-Change                         Max.-Flux-Residual
  Residual-Control   Outer-Iter.   Inner-Iter.     Column Row Layer    Maximum-Head-Change  Column Row Layer    Maximum-Flux-Residual          L2-NORM 
          0                 1           2             4    7     1       0.3522538558E-01       4    7    1         0.1860395151E+01      0.4159458864E+01
          0                 2           2             4    7     1      -0.3424648454E-02       4    7    1        -0.1859409513E+00      0.4157899441E+00
          0                 3           2             4    7     1       0.2330307382E-03       4    7    1         0.1300608752E-01      0.2909010154E-01
          0                 4           1             4    7     1      -0.9260937049E-05       4    7    1        -0.5312852222E-03      0.1188756142E-02

    ------------------------------------------------
       NWT REQUIRED            4 OUTER ITERATIONS 
       AND A TOTAL OF          7 INNER ITERATIONS.
    ------------------------------------------------

 NO OUTPUT CONTROL FOR STRESS PERIOD   11   TIME STEP   27
 
 SOLVING FOR HEAD 
                                                   Max.-Head-Change                         Max.-Flux-Residual
  Residual-Control   Outer-Iter.   Inner-Iter.     Column Row Layer    Maximum-Head-Change  Column Row Layer    Maximum-Flux-Residual          L2-NORM 
          0                 1           2             4    7     1       0.3466628086E-01       4    7    1         0.1830250676E+01      0.4107748210E+01
          0                 2           2             4    7     1      -0.3370290610E-02       4    7    1        -0.1829280275E+00      0.4106208212E+00
          0                 3           2             4    7     1       0.2293319065E-03       4    7    1         0.1279533846E-01      0.2872841501E-01
          0                 4           1             4    7     1      -0.9113937294E-05       4    7    1        -0.5226761095E-03      0.1173960943E-02

    ------------------------------------------------
       NWT REQUIRED            4 OUTER ITERATIONS 
       AND A TOTAL OF          7 INNER ITERATIONS.
    ------------------------------------------------

 NO OUTPUT CONTROL FOR STRESS PERIOD   11   TIME STEP   28
 
 SOLVING FOR HEAD 
                                                   Max.-Head-Change                         Max.-Flux-Residual
  Residual-Control   Outer-Iter.   Inner-Iter.     Column Row Layer    Maximum-Head-Change  Column Row Layer    Maximum-Flux-Residual          L2-NORM 
          0                 1           2             4    7     1       0.3412708411E-01       4    7    1         0.1801210548E+01      0.4057367161E+01
          0                 2           2             4    7     1      -0.3317868331E-02       4    7    1        -0.1800254857E+00      0.4055837818E+00
          0                 3           2             4    7     1       0.2257647846E-03       4    7    1         0.1259231058E-01      0.2837605633E-01
          0                 4           1             4    7     1      -0.8972172505E-05       4    7    1        -0.5143824344E-03      0.1159585317E-02

    ------------------------------------------------
       NWT REQUIRED            4 OUTER ITERATIONS 
       AND A TOTAL OF          7 INNER ITERATIONS.
    ------------------------------------------------

 NO OUTPUT CONTROL FOR STRESS PERIOD   11   TIME STEP   29
 
 SOLVING FOR HEAD 
                                                   Max.-Head-Change                         Max.-Flux-Residual
  Residual-Control   Outer-Iter.   Inner-Iter.     Column Row Layer    Maximum-Head-Change  Column Row Layer    Maximum-Flux-Residual          L2-NORM 
          0                 1           2             4    7     1       0.3360624333E-01       4    7    1         0.1773187949E+01      0.4008229067E+01
          0                 2           2             4    7     1      -0.3267229133E-02       4    7    1        -0.1772246481E+00      0.4006099869E+00
          0                 3           2             4    7     1       0.2223189964E-03       4    7    1         0.1239639688E-01      0.2802800814E-01
          0                 4           1             4    7     1      -0.8835229952E-05       4    7    1        -0.5063793812E-03      0.1145347901E-02

    ------------------------------------------------
       NWT REQUIRED            4 OUTER ITERATIONS 
       AND A TOTAL OF          7 INNER ITERATIONS.
    ------------------------------------------------

 NO OUTPUT CONTROL FOR STRESS PERIOD   11   TIME STEP   30



 STREAM LISTING     PERIOD     11   STEP       30

 LAYER ROW COL. STREAM  RCH.  FLOW INTO     FLOW TO   FLOW OUT OF   OVRLND.     DIRECT     STREAM       STREAM     STREAM     STREAM   STREAMBED  STREAMBED
                SEG.NO.  NO.  STRM. RCH.    AQUIFER    STRM. RCH.    RUNOFF     PRECIP       ET          HEAD       DEPTH      WIDTH   CONDCTNC.   GRADIENT

   1    1    1     1     1    3.5000E+01  2.8629E-01   3.4713E+01  0.000E+00  0.000E+00  0.000E+00  1.09434E+03  1.292E+00  1.482E+01  6.670E-02  1.431E+00
   1    2    2     1     2    3.4713E+01  4.4324E-01   3.4270E+01  0.000E+00  0.000E+00  0.000E+00  1.08935E+03  1.289E+00  1.476E+01  1.033E-01  1.430E+00
   1    3    3     1     3    3.4270E+01  3.7790E-01   3.3892E+01  0.000E+00  0.000E+00  0.000E+00  1.08370E+03  1.286E+00  1.470E+01  8.817E-02  1.429E+00
   1    3    4     1     4    3.3892E+01  3.4789E-01   3.3544E+01  0.000E+00  0.000E+00  0.000E+00  1.07869E+03  1.283E+00  1.464E+01  8.123E-02  1.428E+00
   1    4    5     2     1    3.1544E+01  3.4194E-01   3.1202E+01  0.000E+00  0.000E+00  0.000E+00  1.07332E+03  1.384E+00  1.200E+01  7.800E-02  1.461E+00
   1    5    6     2     2    3.1202E+01  2.6255E-01   3.0940E+01  0.000E+00  0.000E+00  0.000E+00  1.06789E+03  1.376E+00  1.200E+01  6.000E-02  1.459E+00
   1    6    6     2     3    3.0940E+01  2.6213E-01   3.0678E+01  0.000E+00  0.000E+00  0.000E+00  1.06316E+03  1.369E+00  1.200E+01  6.000E-02  1.456E+00
   1    7    6     2     4    3.0678E+01  2.6171E-01   3.0416E+01  0.000E+00  0.000E+00  0.000E+00  1.05844E+03  1.362E+00  1.200E+01  6.000E-02  1.454E+00
   1    8    6     2     5    3.0416E+01  2.6129E-01   3.0155E+01  0.000E+00  0.000E+00  0.000E+00  1.05371E+03  1.355E+00  1.200E+01  6.000E-02  1.452E+00
   1    3    5     3     1    2.0000E+00  2.8252E-01   1.7175E+00  0.000E+00  0.000E+00  0.000E+00  1.07555E+03  1.909E+00  9.636E+00  7.227E-02  1.955E+00
   1    3    6     3     2    1.7175E+00  2.4905E-01   1.4684E+00  0.000E+00  0.000E+00  0.000E+00  1.07264E+03  1.727E+00  8.909E+00  6.682E-02  1.864E+00
   1    3    7     3     3    1.4684E+00  1.9718E-01   1.2712E+00  0.000E+00  0.000E+00  0.000E+00  1.06987E+03  1.555E+00  8.218E+00  5.547E-02  1.777E+00
   1    4    8     3     4    1.2712E+00  2.2567E-01   1.0456E+00  0.000E+00  0.000E+00  0.000E+00  1.06682E+03  1.364E+00  7.455E+00  6.709E-02  1.682E+00
   1    5    8     3     5    1.0456E+00  1.5790E-01   8.8768E-01  0.000E+00  0.000E+00  0.000E+00  1.06362E+03  1.164E+00  6.655E+00  4.991E-02  1.582E+00
   1    6    8     3     6    8.8768E-01  5.5980E-02   8.3170E-01  0.000E+00  0.000E+00  0.000E+00  1.06158E+03  1.036E+00  6.145E+00  1.844E-02  1.518E+00
   1    5   10     4     1    1.0000E+01  9.0919E-02   9.9091E+00  0.000E+00  0.000E+00  0.000E+00  1.07836E+03  6.368E-01  1.000E+01  2.500E-02  1.212E+00
   1    5    9     4     2    9.9091E+00  1.8158E-01   9.7275E+00  0.000E+00  0.000E+00  0.000E+00  1.07154E+03  6.315E-01  1.000E+01  5.000E-02  1.211E+00
   1    6    8     4     3    9.7275E+00  1.2689E-01   9.6006E+00  0.000E+00  0.000E+00  0.000E+00  1.06381E+03  6.256E-01  1.000E+01  3.500E-02  1.209E+00
   1    6    8     5     1    1.0432E+01  2.2686E-01   1.0205E+01  0.000E+00  0.000E+00  0.000E+00  1.05868E+03  6.790E-01  1.542E+01  6.166E-02  1.226E+00
   1    7    7     5     2    1.0205E+01  2.7894E-01   9.9265E+00  0.000E+00  0.000E+00  0.000E+00  1.05417E+03  6.732E-01  1.519E+01  7.594E-02  1.224E+00
   1    8    7     5     3    9.9265E+00  1.9221E-01   9.7343E+00  0.000E+00  0.000E+00  0.000E+00  1.04992E+03  6.676E-01  1.497E+01  5.241E-02  1.223E+00
   1    8    6     5     4    9.7343E+00  1.3577E-01   9.5985E+00  0.000E+00  0.000E+00  0.000E+00  1.04691E+03  6.637E-01  1.482E+01  3.706E-02  1.221E+00
   1    9    6     6     1    3.9753E+01  2.7657E-01   3.9477E+01  0.000E+00  0.000E+00  0.000E+00  1.04434E+03  1.609E+00  1.200E+01  6.000E-02  1.536E+00
   1   10    7     6     2    3.9477E+01  2.7616E-01   3.9201E+01  0.000E+00  0.000E+00  0.000E+00  1.03978E+03  1.603E+00  1.200E+01  6.000E-02  1.534E+00
   1   11    7     6     3    3.9201E+01  2.7576E-01   3.8925E+01  0.000E+00  0.000E+00  0.000E+00  1.03523E+03  1.596E+00  1.200E+01  6.000E-02  1.532E+00
   1   12    7     6     4    3.8925E+01  2.7535E-01   3.8649E+01  0.000E+00  0.000E+00  0.000E+00  1.03068E+03  1.589E+00  1.200E+01  6.000E-02  1.530E+00
   1   13    7     6     5    3.8649E+01  6.5243E-03   3.8643E+01  0.000E+00  0.000E+00  0.000E+00  1.02749E+03  1.586E+00  1.200E+01  2.400E-02  9.062E-02
   1   14    9     7     1    1.5000E+02  1.3303E+00   1.4867E+02  0.000E+00  0.000E+00  0.000E+00  1.03987E+03  2.288E+00  5.529E+01  5.593E-01  7.928E-01
   1   13    8     7     2    1.4867E+02  1.7945E+00   1.4688E+02  0.000E+00  0.000E+00  0.000E+00  1.03478E+03  2.279E+00  5.526E+01  6.148E-01  9.730E-01
   1   13    7     7     3    1.4688E+02  1.3779E+00   1.4550E+02  0.000E+00  0.000E+00  0.000E+00  1.02969E+03  2.271E+00  5.522E+01  5.585E-01  8.224E-01
   1   13    6     8     1    1.8414E+02  8.8646E-01   1.8325E+02  0.000E+00  0.000E+00  0.000E+00  1.02491E+03  3.039E+00  4.407E+01  4.491E-01  6.580E-01
   1   13    5     8     2    1.8325E+02  1.2926E-01   1.8312E+02  0.000E+00  0.000E+00  0.000E+00  1.01866E+03  3.036E+00  4.402E+01  4.486E-01  9.605E-02
   1   13    4     8     3    1.8312E+02 -2.6024E+00   1.8573E+02  0.000E+00  0.000E+00  0.000E+00  1.01242E+03  3.044E+00  4.413E+01  4.497E+00 -1.929E-01
   1   13    3     8     4    1.8573E+02 -3.7448E+00   1.8947E+02  0.000E+00  0.000E+00  0.000E+00  1.00619E+03  3.063E+00  4.442E+01  4.526E+00 -2.758E-01
   1   13    2     8     5    1.8947E+02 -2.6143E+00   1.9209E+02  0.000E+00  0.000E+00  0.000E+00  9.99958E+02  3.083E+00  4.470E+01  4.555E+00 -1.913E-01
   1   13    1     8     6    1.9209E+02 -2.0206E+00   1.9411E+02  0.000E+00  0.000E+00  0.000E+00  9.94972E+02  3.097E+00  4.490E+01  2.745E+00 -2.453E-01





UNSATURATED ZONE PACKAGE VOLUMETRIC BUDGET FOR  TIME STEP    30 STRESS PERIOD   11
  ------------------------------------------------------------------------------



     CUMULATIVE VOLUMES      L**3       RATES FOR THIS TIME STEP      L**3/T
     ------------------                 ------------------------

           IN:                                      IN:
           ---                                      ---
        INFILTRATION =   498640433.4994          INFILTRATION =           0.8475

          OUT:                                     OUT:
          ----                                     ----
              UZF ET =   426177750.1874                UZF ET =           0.8475
        UZF RECHARGE =    72390151.3915          UZF RECHARGE =           0.0004

            IN - OUT =       72531.9205              IN - OUT =      -3.8815E-04

          STORAGE:                                 STORAGE:
          --------                                 --------
      STORAGE CHANGE =       72538.0069        STORAGE CHANGE =      -3.8815E-04

 PERCENT DISCREPANCY IS DIFFERENCE BETWEEN IN-OUT MINUS CHANGE IN STORAGE
 DIVIDED BY THE AVERAGE OF IN AND OUT TIMES 100

 PERCENT DISCREPANCY =           0.00     PERCENT DISCREPANCY =           0.00






1
  VOLUMETRIC BUDGET FOR AGRICULTURAL FIELDS AT  END OF TIME STEP   30, STRESS PERIOD  11
  ------------------------------------------------------------------------------

     CUMULATIVE VOLUMES      L**3       RATES FOR THIS TIME STEP      L**3/T
     ------------------                 ------------------------

           IN:                                      IN:
           ---                                      ---
               AG WELLS  =   476277312.0000                 AG WELLS  =           0.0000
      DIVERSION SEGMENTS =           0.0000        DIVERSION SEGMENTS =           0.0000
           GW IRRIGATION =           0.0000             GW IRRIGATION =           0.0000
           SW IRRIGATION =           0.0000             SW IRRIGATION =           0.0000
        SYSTEM LOSSES GW =           0.0000          SYSTEM LOSSES GW =           0.0000
        SYSTEM LOSSES SW =           0.0000          SYSTEM LOSSES SW =           0.0000

                TOTAL IN =   476277312.0000                  TOTAL IN =           0.0000

          OUT:                                     OUT:
          ----                                     ----
               AG WELLS  =           0.0000                 AG WELLS  =           0.0000
      DIVERSION SEGMENTS =           0.0000        DIVERSION SEGMENTS =           0.0000
           GW IRRIGATION =   476277312.0000             GW IRRIGATION =           0.0000
           SW IRRIGATION =           0.0000             SW IRRIGATION =           0.0000
        SYSTEM LOSSES GW =           0.0000          SYSTEM LOSSES GW =           0.0000
        SYSTEM LOSSES SW =           0.0000          SYSTEM LOSSES SW =           0.0000

               TOTAL OUT =   476277312.0000                 TOTAL OUT =           0.0000

                IN - OUT =           0.0000                  IN - OUT =           0.0000

     PERCENT DISCREPANCY =           0.00         PERCENT DISCREPANCY =           0.00



1
  VOLUMETRIC BUDGET FOR ENTIRE MODEL AT END OF TIME STEP   30, STRESS PERIOD  11
  ------------------------------------------------------------------------------

     CUMULATIVE VOLUMES      L**3       RATES FOR THIS TIME STEP      L**3/T
     ------------------                 ------------------------

           IN:                                      IN:
           ---                                      ---
             STORAGE     =   548891712.0000               STORAGE     =          11.3157
       CONSTANT HEAD     =           0.0000         CONSTANT HEAD     =           0.0000
     HEAD DEP BOUNDS     =     7531935.5000       HEAD DEP BOUNDS     =           0.2854
      STREAM LEAKAGE     =   334155968.0000        STREAM LEAKAGE     =          11.8752
        UZF RECHARGE     =    72390168.0000          UZF RECHARGE     =       3.8815E-04
               GW ET     =           0.0000                 GW ET     =           0.0000
     SURFACE LEAKAGE     =           0.0000       SURFACE LEAKAGE     =           0.0000
           AG WELLS      =           0.0000             AG WELLS      =           0.0000

                TOTAL IN =   962969728.0000                  TOTAL IN =          23.4767

          OUT:                                     OUT:
          ----                                     ----
             STORAGE     =   194953232.0000               STORAGE     =          12.1978
       CONSTANT HEAD     =           0.0000         CONSTANT HEAD     =           0.0000
     HEAD DEP BOUNDS     =     7792452.0000       HEAD DEP BOUNDS     =           0.2929
      STREAM LEAKAGE     =   270200768.0000        STREAM LEAKAGE     =          10.9822
        UZF RECHARGE     =           0.0000          UZF RECHARGE     =           0.0000
               GW ET     =    13750512.0000                 GW ET     =       3.7534E-03
     SURFACE LEAKAGE     =           0.0000       SURFACE LEAKAGE     =           0.0000
           AG WELLS      =   476277312.0000             AG WELLS      =           0.0000

               TOTAL OUT =   962974272.0000                 TOTAL OUT =          23.4767

                IN - OUT =       -4544.0000                  IN - OUT =       7.6294E-06

     PERCENT DISCREPANCY =          -0.00         PERCENT DISCREPANCY =           0.00






         TIME SUMMARY AT END OF TIME STEP   30 IN STRESS PERIOD   11
                    SECONDS     MINUTES      HOURS       DAYS        YEARS
                    -----------------------------------------------------------
   TIME STEP LENGTH  87667.      1461.1      24.352      1.0147     2.77799E-03
 STRESS PERIOD TIME 2.63000E+06  43833.      730.56      30.440     8.33397E-02
         TOTAL TIME 2.63864E+07 4.39773E+05  7329.5      305.40     0.83613    
1
1
                            STRESS PERIOD NO.   12, LENGTH =   2630000.    
                            -----------------------------------------------

                              NUMBER OF TIME STEPS =    30

                               MULTIPLIER FOR DELT =     1.000

                            INITIAL TIME STEP SIZE =   87666.66    

 REUSING NON-PARAMETER GHB CELLS FROM LAST STRESS PERIOD

      2 GHB CELLS

 REUSING STREAM SEGMENT DATA FROM LAST STRESS PERIOD



            AREAL INFILTRATION RATE
 READING ON UNIT   19 WITH FORMAT: (FREE)              

            1           2           3           4           5           6           7           8           9          10
 ........................................................................................................................
   1   1.0000E-10  2.0000E-10   0.000       0.000       0.000       0.000       0.000       0.000       0.000       0.000    
   2   2.0000E-10  1.0000E-10  2.0000E-10   0.000       0.000      8.0000E-10  8.0000E-10  5.0000E-10   0.000       0.000    
   3    0.000      5.0000E-10  1.0000E-10  1.0000E-10  8.0000E-10  8.0000E-10  5.0000E-10  5.0000E-10   0.000       0.000    
   4   8.0000E-10  5.0000E-10  1.0000E-10  1.0000E-10  1.0000E-10  1.0000E-10  1.0000E-10  1.0000E-10  2.0000E-10   0.000    
   5   8.0000E-10  5.0000E-10  1.0000E-10  1.0000E-10  1.0000E-10  1.0000E-10  1.0000E-10  1.0000E-10  1.0000E-10  1.0000E-10
   6   8.0000E-10  5.0000E-10  5.0000E-10  2.0000E-10  2.0000E-10  1.0000E-10  1.0000E-10  1.0000E-10  1.0000E-10  5.0000E-10
   7   8.0000E-10  5.0000E-10  5.0000E-10  2.0000E-10  2.0000E-10  1.0000E-10  1.0000E-10  2.0000E-10  2.0000E-10   0.000    
   8    0.000      5.0000E-10  5.0000E-10  2.0000E-10  2.0000E-10  1.0000E-10  1.0000E-10  2.0000E-10  5.0000E-10   0.000    
   9    0.000      5.0000E-10  5.0000E-10  2.0000E-10  2.0000E-10  1.0000E-10  1.0000E-10  2.0000E-10  5.0000E-10   0.000    
  10    0.000      5.0000E-10  5.0000E-10  2.0000E-10  2.0000E-10  1.0000E-10  1.0000E-10  2.0000E-10  5.0000E-10  8.0000E-10
  11    0.000      1.0000E-10  1.0000E-10  1.0000E-10  1.0000E-10  1.0000E-10  1.0000E-10  2.0000E-10  5.0000E-10   0.000    
  12   1.0000E-10  1.0000E-10  1.0000E-10  1.0000E-10  1.0000E-10  1.0000E-10  1.0000E-10  1.0000E-10  2.0000E-10   0.000    
  13   1.0000E-10  1.0000E-10  2.0000E-10  2.0000E-10  2.0000E-10  2.0000E-10  2.0000E-10  1.0000E-10  1.0000E-10   0.000    
  14    0.000      2.0000E-10  5.0000E-10  5.0000E-10  5.0000E-10  5.0000E-10  5.0000E-10  2.0000E-10  1.0000E-10   0.000    
  15    0.000       0.000      8.0000E-10  8.0000E-10  8.0000E-10  8.0000E-10   0.000       0.000       0.000       0.000    

                  ET RATE =  5.000000E-10

 USING ET EXTINCTION DEPTH FROM PREVIOUS STRESS PERIOD. CURRENT PERIOD IS:      12

 USING EXTINCTION WATER CONTENT FROM PREVIOUS STRESS PERIOD. CURRENT PERIOD IS:      12

 USING AIR ENTRY PRESSURE FROM PREVIOUS STRESS PERIOD. CURRENT PERIOD IS:      12

 USING ROOT PRESSURE HEAD FROM PREVIOUS STRESS PERIOD. CURRENT PERIOD IS:      12

 USING ROOT ACTIVITY FROM PREVIOUS STRESS PERIOD. CURRENT PERIOD IS:      12

 PROCESSING AG STRESS PERIOD DATA

 READING AG STRESS PERIOD DATA

 READING IRRIGATION WELL

 END PROCESSING AG STRESS PERIOD DATA OPTIONS
 
 SOLVING FOR HEAD 
                                                   Max.-Head-Change                         Max.-Flux-Residual
  Residual-Control   Outer-Iter.   Inner-Iter.     Column Row Layer    Maximum-Head-Change  Column Row Layer    Maximum-Flux-Residual          L2-NORM 
          0                 1           2             4    7     1       0.3310281383E-01       4    7    1         0.1746131827E+01      0.3980363731E+01
          0                 2           2             4    7     1      -0.3218285927E-02       4    7    1        -0.1745204122E+00      0.3978093106E+00
          0                 3           2             4    7     1       0.2189886158E-03       4    7    1         0.1220724043E-01      0.2782505407E-01
          0                 4           1             4    7     1      -0.8702873966E-05       4    7    1        -0.4986523704E-03      0.1136668365E-02

    ------------------------------------------------
       NWT REQUIRED            4 OUTER ITERATIONS 
       AND A TOTAL OF          7 INNER ITERATIONS.
    ------------------------------------------------

 NO OUTPUT CONTROL FOR STRESS PERIOD   12   TIME STEP    1
 
 SOLVING FOR HEAD 
                                                   Max.-Head-Change                         Max.-Flux-Residual
  Residual-Control   Outer-Iter.   Inner-Iter.     Column Row Layer    Maximum-Head-Change  Column Row Layer    Maximum-Flux-Residual          L2-NORM 
          0                 1           2             4    7     1       0.3261555752E-01       4    7    1         0.1719970948E+01      0.3937832261E+01
          0                 2           2             4    7     1      -0.3170913579E-02       4    7    1        -0.1719056577E+00      0.3935437495E+00
          0                 3           2             4    7     1       0.2157651276E-03       4    7    1         0.1202434316E-01      0.2752525059E-01
          0                 4           1             4    7     1      -0.8574765959E-05       4    7    1        -0.4911810565E-03      0.1124274793E-02

    ------------------------------------------------
       NWT REQUIRED            4 OUTER ITERATIONS 
       AND A TOTAL OF          7 INNER ITERATIONS.
    ------------------------------------------------

 NO OUTPUT CONTROL FOR STRESS PERIOD   12   TIME STEP    2
 
 SOLVING FOR HEAD 
                                                   Max.-Head-Change                         Max.-Flux-Residual
  Residual-Control   Outer-Iter.   Inner-Iter.     Column Row Layer    Maximum-Head-Change  Column Row Layer    Maximum-Flux-Residual          L2-NORM 
          0                 1           2             4    7     1       0.3214361988E-01       4    7    1         0.1694656040E+01      0.3890157475E+01
          0                 2           2             4    7     1      -0.3125030606E-02       4    7    1        -0.1693754596E+00      0.3887892370E+00
          0                 3           2             4    7     1       0.2126429855E-03       4    7    1         0.1184736057E-01      0.2719355562E-01
          0                 4           1             4    7     1      -0.8450685922E-05       4    7    1        -0.4839513431E-03      0.1110806301E-02

    ------------------------------------------------
       NWT REQUIRED            4 OUTER ITERATIONS 
       AND A TOTAL OF          7 INNER ITERATIONS.
    ------------------------------------------------

 NO OUTPUT CONTROL FOR STRESS PERIOD   12   TIME STEP    3
 
 SOLVING FOR HEAD 
                                                   Max.-Head-Change                         Max.-Flux-Residual
  Residual-Control   Outer-Iter.   Inner-Iter.     Column Row Layer    Maximum-Head-Change  Column Row Layer    Maximum-Flux-Residual          L2-NORM 
          0                 1           2             4    7     1       0.3168594221E-01       4    7    1         0.1670128043E+01      0.3843758516E+01
          0                 2           2             4    7     1      -0.3080534139E-02       4    7    1        -0.1669239146E+00      0.3841612065E+00
          0                 3           2             4    7     1       0.2096151926E-03       4    7    1         0.1167587974E-01      0.2687077621E-01
          0                 4           1             4    7     1      -0.8330355820E-05       4    7    1        -0.4769463985E-03      0.1097660356E-02

    ------------------------------------------------
       NWT REQUIRED            4 OUTER ITERATIONS 
       AND A TOTAL OF          7 INNER ITERATIONS.
    ------------------------------------------------

 NO OUTPUT CONTROL FOR STRESS PERIOD   12   TIME STEP    4
 
 SOLVING FOR HEAD 
                                                   Max.-Head-Change                         Max.-Flux-Residual
  Residual-Control   Outer-Iter.   Inner-Iter.     Column Row Layer    Maximum-Head-Change  Column Row Layer    Maximum-Flux-Residual          L2-NORM 
          0                 1           2             4    7     1       0.3124194223E-01       4    7    1         0.1646354067E+01      0.3798546601E+01
          0                 2           2             4    7     1      -0.3037367388E-02       4    7    1        -0.1645477354E+00      0.3796501043E+00
          0                 3           2             4    7     1       0.2066778828E-03       4    7    1         0.1150967067E-01      0.2655584598E-01
          0                 4           1             4    7     1      -0.8213622305E-05       4    7    1        -0.4701568309E-03      0.1084755468E-02

    ------------------------------------------------
       NWT REQUIRED            4 OUTER ITERATIONS 
       AND A TOTAL OF          7 INNER ITERATIONS.
    ------------------------------------------------

 NO OUTPUT CONTROL FOR STRESS PERIOD   12   TIME STEP    5
 
 SOLVING FOR HEAD 
                                                   Max.-Head-Change                         Max.-Flux-Residual
  Residual-Control   Outer-Iter.   Inner-Iter.     Column Row Layer    Maximum-Head-Change  Column Row Layer    Maximum-Flux-Residual          L2-NORM 
          0                 1           2             4    7     1       0.3081082714E-01       4    7    1         0.1623289262E+01      0.3754439623E+01
          0                 2           2             4    7     1      -0.2995453370E-02       4    7    1        -0.1622424389E+00      0.3752486019E+00
          0                 3           2             4    7     1       0.2038258174E-03       4    7    1         0.1134841982E-01      0.2624864617E-01
          0                 4           1             4    7     1      -0.8100275613E-05       4    7    1        -0.4635697794E-03      0.1072378428E-02

    ------------------------------------------------
       NWT REQUIRED            4 OUTER ITERATIONS 
       AND A TOTAL OF          7 INNER ITERATIONS.
    ------------------------------------------------

 NO OUTPUT CONTROL FOR STRESS PERIOD   12   TIME STEP    6
 
 SOLVING FOR HEAD 
                                                   Max.-Head-Change                         Max.-Flux-Residual
  Residual-Control   Outer-Iter.   Inner-Iter.     Column Row Layer    Maximum-Head-Change  Column Row Layer    Maximum-Flux-Residual          L2-NORM 
          0                 1           2             4    7     1       0.3039172350E-01       4    7    1         0.1600885180E+01      0.3711376863E+01
          0                 2           2             4    7     1      -0.2954707163E-02       4    7    1        -0.1600031827E+00      0.3709500005E+00
          0                 3           2             4    7     1       0.2010532177E-03       4    7    1         0.1119178842E-01      0.2594854328E-01
          0                 4           1             4    7     1      -0.7990087678E-05       4    7    1        -0.4571714544E-03      0.1060172383E-02

    ------------------------------------------------
       NWT REQUIRED            4 OUTER ITERATIONS 
       AND A TOTAL OF          7 INNER ITERATIONS.
    ------------------------------------------------

 NO OUTPUT CONTROL FOR STRESS PERIOD   12   TIME STEP    7
 
 SOLVING FOR HEAD 
                                                   Max.-Head-Change                         Max.-Flux-Residual
  Residual-Control   Outer-Iter.   Inner-Iter.     Column Row Layer    Maximum-Head-Change  Column Row Layer    Maximum-Flux-Residual          L2-NORM 
          0                 1           2             4    7     1       0.2998395166E-01       4    7    1         0.1579103870E+01      0.3669287534E+01
          0                 2           2             4    7     1      -0.2915062687E-02       4    7    1        -0.1578261735E+00      0.3667484081E+00
          0                 3           2             4    7     1       0.1983555877E-03       4    7    1         0.1103951117E-01      0.2565507387E-01
          0                 4           1             4    7     1      -0.7882879360E-05       4    7    1        -0.4509509956E-03      0.1048120391E-02

    ------------------------------------------------
       NWT REQUIRED            4 OUTER ITERATIONS 
       AND A TOTAL OF          7 INNER ITERATIONS.
    ------------------------------------------------

 NO OUTPUT CONTROL FOR STRESS PERIOD   12   TIME STEP    8
 
 SOLVING FOR HEAD 
                                                   Max.-Head-Change                         Max.-Flux-Residual
  Residual-Control   Outer-Iter.   Inner-Iter.     Column Row Layer    Maximum-Head-Change  Column Row Layer    Maximum-Flux-Residual          L2-NORM 
          0                 1           2             4    7     1       0.2958715646E-01       4    7    1         0.1557924769E+01      0.3628124094E+01
          0                 2           2             4    7     1      -0.2876485412E-02       4    7    1        -0.1557093559E+00      0.3626390125E+00
          0                 3           2             4    7     1       0.1957305770E-03       4    7    1         0.1089144426E-01      0.2536807865E-01
          0                 4           1             4    7     1      -0.7778556830E-05       4    7    1        -0.4449025444E-03      0.1036462877E-02

    ------------------------------------------------
       NWT REQUIRED            4 OUTER ITERATIONS 
       AND A TOTAL OF          7 INNER ITERATIONS.
    ------------------------------------------------

 NO OUTPUT CONTROL FOR STRESS PERIOD   12   TIME STEP    9
 
 SOLVING FOR HEAD 
                                                   Max.-Head-Change                         Max.-Flux-Residual
  Residual-Control   Outer-Iter.   Inner-Iter.     Column Row Layer    Maximum-Head-Change  Column Row Layer    Maximum-Flux-Residual          L2-NORM 
          0                 1           2             4    7     1       0.2920060756E-01       4    7    1         0.1537307451E+01      0.3587830727E+01
          0                 2           2             4    7     1      -0.2838904329E-02       4    7    1        -0.1536486891E+00      0.3586153960E+00
          0                 3           2             4    7     1       0.1931733539E-03       4    7    1         0.1074730506E-01      0.2508688028E-01
          0                 4           1             4    7     1      -0.7676928401E-05       4    7    1        -0.4390145295E-03      0.1024924332E-02

    ------------------------------------------------
       NWT REQUIRED            4 OUTER ITERATIONS 
       AND A TOTAL OF          7 INNER ITERATIONS.
    ------------------------------------------------

 NO OUTPUT CONTROL FOR STRESS PERIOD   12   TIME STEP   10
 
 SOLVING FOR HEAD 
                                                   Max.-Head-Change                         Max.-Flux-Residual
  Residual-Control   Outer-Iter.   Inner-Iter.     Column Row Layer    Maximum-Head-Change  Column Row Layer    Maximum-Flux-Residual          L2-NORM 
          0                 1           2             4    7     1       0.2882376397E-01       4    7    1         0.1517221385E+01      0.3548364047E+01
          0                 2           2             4    7     1      -0.2802266839E-02       4    7    1        -0.1516411216E+00      0.3546742898E+00
          0                 3           2             4    7     1       0.1906803392E-03       4    7    1         0.1060688009E-01      0.2481157947E-01
          0                 4           1             4    7     1      -0.7577852351E-05       4    7    1        -0.4332782557E-03      0.1013727902E-02

    ------------------------------------------------
       NWT REQUIRED            4 OUTER ITERATIONS 
       AND A TOTAL OF          7 INNER ITERATIONS.
    ------------------------------------------------

 NO OUTPUT CONTROL FOR STRESS PERIOD   12   TIME STEP   11
 
 SOLVING FOR HEAD 
                                                   Max.-Head-Change                         Max.-Flux-Residual
  Residual-Control   Outer-Iter.   Inner-Iter.     Column Row Layer    Maximum-Head-Change  Column Row Layer    Maximum-Flux-Residual          L2-NORM 
          0                 1           2             4    7     1       0.2845612008E-01       4    7    1         0.1497638522E+01      0.3509694942E+01
          0                 2           2             4    7     1      -0.2766523783E-02       4    7    1        -0.1496838497E+00      0.3508120582E+00
          0                 3           2             4    7     1       0.1882481874E-03       4    7    1         0.1046997327E-01      0.2454169872E-01
          0                 4           1             4    7     1      -0.7481194557E-05       4    7    1        -0.4276856819E-03      0.1002754344E-02

    ------------------------------------------------
       NWT REQUIRED            4 OUTER ITERATIONS 
       AND A TOTAL OF          7 INNER ITERATIONS.
    ------------------------------------------------

 NO OUTPUT CONTROL FOR STRESS PERIOD   12   TIME STEP   12
 
 SOLVING FOR HEAD 
                                                   Max.-Head-Change                         Max.-Flux-Residual
  Residual-Control   Outer-Iter.   Inner-Iter.     Column Row Layer    Maximum-Head-Change  Column Row Layer    Maximum-Flux-Residual          L2-NORM 
          0                 1           2             4    7     1       0.2809734089E-01       4    7    1         0.1478539986E+01      0.3471766789E+01
          0                 2           2             4    7     1      -0.2731642592E-02       4    7    1        -0.1477749868E+00      0.3470236092E+00
          0                 3           2             4    7     1       0.1858746826E-03       4    7    1         0.1033645258E-01      0.2427690949E-01
          0                 4           1             4    7     1      -0.7386867636E-05       4    7    1        -0.4222314483E-03      0.9919708429E-03

    ------------------------------------------------
       NWT REQUIRED            4 OUTER ITERATIONS 
       AND A TOTAL OF          7 INNER ITERATIONS.
    ------------------------------------------------

 NO OUTPUT CONTROL FOR STRESS PERIOD   12   TIME STEP   13
 
 SOLVING FOR HEAD 
                                                   Max.-Head-Change                         Max.-Flux-Residual
  Residual-Control   Outer-Iter.   Inner-Iter.     Column Row Layer    Maximum-Head-Change  Column Row Layer    Maximum-Flux-Residual          L2-NORM 
          0                 1           2             4    7     1       0.2774684964E-01       4    7    1         0.1459893731E+01      0.3434560807E+01
          0                 2           2             4    7     1      -0.2697567189E-02       4    7    1        -0.1459113296E+00      0.3433069691E+00
          0                 3           2             4    7     1       0.1835560092E-03       4    7    1         0.1020609399E-01      0.2401737630E-01
          0                 4           1             4    7     1      -0.7294720080E-05       4    7    1        -0.4169063975E-03      0.9817667808E-03

    ------------------------------------------------
       NWT REQUIRED            4 OUTER ITERATIONS 
       AND A TOTAL OF          7 INNER ITERATIONS.
    ------------------------------------------------

 NO OUTPUT CONTROL FOR STRESS PERIOD   12   TIME STEP   14
 
 SOLVING FOR HEAD 
                                                   Max.-Head-Change                         Max.-Flux-Residual
  Residual-Control   Outer-Iter.   Inner-Iter.     Column Row Layer    Maximum-Head-Change  Column Row Layer    Maximum-Flux-Residual          L2-NORM 
          0                 1           2             4    7     1       0.2740451329E-01       4    7    1         0.1441691870E+01      0.3398050886E+01
          0                 2           2             4    7     1      -0.2664284639E-02       4    7    1        -0.1440920900E+00      0.3396596072E+00
          0                 3           2             4    7     1       0.1812912858E-03       4    7    1         0.1007884236E-01      0.2376208784E-01
          0                 4           1             4    7     1      -0.7204716546E-05       4    7    1        -0.4117082376E-03      0.9709976685E-03

    ------------------------------------------------
       NWT REQUIRED            4 OUTER ITERATIONS 
       AND A TOTAL OF          7 INNER ITERATIONS.
    ------------------------------------------------

 NO OUTPUT CONTROL FOR STRESS PERIOD   12   TIME STEP   15
 
 SOLVING FOR HEAD 
                                                   Max.-Head-Change                         Max.-Flux-Residual
  Residual-Control   Outer-Iter.   Inner-Iter.     Column Row Layer    Maximum-Head-Change  Column Row Layer    Maximum-Flux-Residual          L2-NORM 
          0                 1           2             4    7     1       0.2706967243E-01       4    7    1         0.1423898145E+01      0.3362199214E+01
          0                 2           2             4    7     1      -0.2631730830E-02       4    7    1        -0.1423136439E+00      0.3360778696E+00
          0                 3           2             4    7     1       0.1790761513E-03       4    7    1         0.9954444187E-02      0.2351171683E-01
          0                 4           1             4    7     1      -0.7116683996E-05       4    7    1        -0.4066266752E-03      0.9607284747E-03

    ------------------------------------------------
       NWT REQUIRED            4 OUTER ITERATIONS 
       AND A TOTAL OF          7 INNER ITERATIONS.
    ------------------------------------------------

 NO OUTPUT CONTROL FOR STRESS PERIOD   12   TIME STEP   16
 
 SOLVING FOR HEAD 
                                                   Max.-Head-Change                         Max.-Flux-Residual
  Residual-Control   Outer-Iter.   Inner-Iter.     Column Row Layer    Maximum-Head-Change  Column Row Layer    Maximum-Flux-Residual          L2-NORM 
          0                 1           2             4    7     1       0.2674211351E-01       4    7    1         0.1406500389E+01      0.3326984899E+01
          0                 2           2             4    7     1      -0.2599885000E-02       4    7    1        -0.1405747750E+00      0.3325595413E+00
          0                 3           2             4    7     1       0.1769091921E-03       4    7    1         0.9832814405E-02      0.2326567321E-01
          0                 4           1             4    7     1      -0.7030566018E-05       4    7    1        -0.4016581981E-03      0.9506342830E-03

    ------------------------------------------------
       NWT REQUIRED            4 OUTER ITERATIONS 
       AND A TOTAL OF          7 INNER ITERATIONS.
    ------------------------------------------------

 NO OUTPUT CONTROL FOR STRESS PERIOD   12   TIME STEP   17
 
 SOLVING FOR HEAD 
                                                   Max.-Head-Change                         Max.-Flux-Residual
  Residual-Control   Outer-Iter.   Inner-Iter.     Column Row Layer    Maximum-Head-Change  Column Row Layer    Maximum-Flux-Residual          L2-NORM 
          0                 1           2             4    7     1       0.2642150525E-01       4    7    1         0.1389480188E+01      0.3292388710E+01
          0                 2           2             4    7     1      -0.2568714938E-02       4    7    1        -0.1388736428E+00      0.3291028496E+00
          0                 3           2             4    7     1       0.1747882160E-03       4    7    1         0.9713824243E-02      0.2302402274E-01
          0                 4           1             4    7     1      -0.6946275000E-05       4    7    1        -0.3967975240E-03      0.9408036442E-03

    ------------------------------------------------
       NWT REQUIRED            4 OUTER ITERATIONS 
       AND A TOTAL OF          7 INNER ITERATIONS.
    ------------------------------------------------

 NO OUTPUT CONTROL FOR STRESS PERIOD   12   TIME STEP   18
 
 SOLVING FOR HEAD 
                                                   Max.-Head-Change                         Max.-Flux-Residual
  Residual-Control   Outer-Iter.   Inner-Iter.     Column Row Layer    Maximum-Head-Change  Column Row Layer    Maximum-Flux-Residual          L2-NORM 
          0                 1           2             4    7     1       0.2610767263E-01       4    7    1         0.1372827709E+01      0.3258385951E+01
          0                 2           2             4    7     1      -0.2538203632E-02       4    7    1        -0.1372092646E+00      0.3257052806E+00
          0                 3           2             4    7     1       0.1727120662E-03       4    7    1         0.9597404985E-02      0.2278643778E-01
          0                 4           1             4    7     1      -0.6863765927E-05       4    7    1        -0.3920418892E-03      0.9311075493E-03

    ------------------------------------------------
       NWT REQUIRED            4 OUTER ITERATIONS 
       AND A TOTAL OF          7 INNER ITERATIONS.
    ------------------------------------------------

 NO OUTPUT CONTROL FOR STRESS PERIOD   12   TIME STEP   19
 
 SOLVING FOR HEAD 
                                                   Max.-Head-Change                         Max.-Flux-Residual
  Residual-Control   Outer-Iter.   Inner-Iter.     Column Row Layer    Maximum-Head-Change  Column Row Layer    Maximum-Flux-Residual          L2-NORM 
          0                 1           2             4    7     1       0.2580018683E-01       4    7    1         0.1356519192E+01      0.3224954475E+01
          0                 2           2             4    7     1      -0.2508309383E-02       4    7    1        -0.1355792655E+00      0.3223646699E+00
          0                 3           2             4    7     1       0.1706779044E-03       4    7    1         0.9483390471E-02      0.2255284208E-01
          0                 4           1             4    7     1      -0.6782925513E-05       4    7    1        -0.3873844937E-03      0.9215679440E-03

    ------------------------------------------------
       NWT REQUIRED            4 OUTER ITERATIONS 
       AND A TOTAL OF          7 INNER ITERATIONS.
    ------------------------------------------------

 NO OUTPUT CONTROL FOR STRESS PERIOD   12   TIME STEP   20
 
 SOLVING FOR HEAD 
                                                   Max.-Head-Change                         Max.-Flux-Residual
  Residual-Control   Outer-Iter.   Inner-Iter.     Column Row Layer    Maximum-Head-Change  Column Row Layer    Maximum-Flux-Residual          L2-NORM 
          0                 1           2             4    7     1       0.2549877914E-01       4    7    1         0.1340539746E+01      0.3192078094E+01
          0                 2           2             4    7     1      -0.2479006071E-02       4    7    1        -0.1339821570E+00      0.3190793695E+00
          0                 3           2             4    7     1       0.1686839540E-03       4    7    1         0.9371676634E-02      0.2232312886E-01
          0                 4           1             4    7     1      -0.6703683301E-05       4    7    1        -0.3828210881E-03      0.9121983564E-03

    ------------------------------------------------
       NWT REQUIRED            4 OUTER ITERATIONS 
       AND A TOTAL OF          7 INNER ITERATIONS.
    ------------------------------------------------

 NO OUTPUT CONTROL FOR STRESS PERIOD   12   TIME STEP   21
 
 SOLVING FOR HEAD 
                                                   Max.-Head-Change                         Max.-Flux-Residual
  Residual-Control   Outer-Iter.   Inner-Iter.     Column Row Layer    Maximum-Head-Change  Column Row Layer    Maximum-Flux-Residual          L2-NORM 
          0                 1           2             4    7     1       0.2520333234E-01       4    7    1         0.1324882783E+01      0.3159744721E+01
          0                 2           2             4    7     1      -0.2450282297E-02       4    7    1        -0.1324172806E+00      0.3158483132E+00
          0                 3           2             4    7     1       0.1667294383E-03       4    7    1         0.9262217358E-02      0.2209711886E-01
          0                 4           1             4    7     1      -0.6626008091E-05       4    7    1        -0.3783497687E-03      0.9029467501E-03

    ------------------------------------------------
       NWT REQUIRED            4 OUTER ITERATIONS 
       AND A TOTAL OF          7 INNER ITERATIONS.
    ------------------------------------------------

 NO OUTPUT CONTROL FOR STRESS PERIOD   12   TIME STEP   22
 
 SOLVING FOR HEAD 
                                                   Max.-Head-Change                         Max.-Flux-Residual
  Residual-Control   Outer-Iter.   Inner-Iter.     Column Row Layer    Maximum-Head-Change  Column Row Layer    Maximum-Flux-Residual          L2-NORM 
          0                 1           2             4    7     1       0.2491347474E-01       4    7    1         0.1309527537E+01      0.3127933688E+01
          0                 2           2             4    7     1      -0.2422101923E-02       4    7    1        -0.1308825608E+00      0.3126693073E+00
          0                 3           2             4    7     1       0.1648118988E-03       4    7    1         0.9154867498E-02      0.2187481120E-01
          0                 4           1             4    7     1      -0.6549802369E-05       4    7    1        -0.3739646052E-03      0.8938726728E-03

    ------------------------------------------------
       NWT REQUIRED            4 OUTER ITERATIONS 
       AND A TOTAL OF          7 INNER ITERATIONS.
    ------------------------------------------------

 NO OUTPUT CONTROL FOR STRESS PERIOD   12   TIME STEP   23
 
 SOLVING FOR HEAD 
                                                   Max.-Head-Change                         Max.-Flux-Residual
  Residual-Control   Outer-Iter.   Inner-Iter.     Column Row Layer    Maximum-Head-Change  Column Row Layer    Maximum-Flux-Residual          L2-NORM 
          0                 1           2             4    7     1       0.2462911851E-01       4    7    1         0.1294469424E+01      0.3096633045E+01
          0                 2           2             4    7     1      -0.2394456410E-02       4    7    1        -0.1293775395E+00      0.3095412897E+00
          0                 3           2             4    7     1       0.1629307549E-03       4    7    1         0.9049595006E-02      0.2165604943E-01
          0                 4           1             4    7     1      -0.6475043110E-05       4    7    1        -0.3696643248E-03      0.8850943601E-03

    ------------------------------------------------
       NWT REQUIRED            4 OUTER ITERATIONS 
       AND A TOTAL OF          7 INNER ITERATIONS.
    ------------------------------------------------

 NO OUTPUT CONTROL FOR STRESS PERIOD   12   TIME STEP   24
 
 SOLVING FOR HEAD 
                                                   Max.-Head-Change                         Max.-Flux-Residual
  Residual-Control   Outer-Iter.   Inner-Iter.     Column Row Layer    Maximum-Head-Change  Column Row Layer    Maximum-Flux-Residual          L2-NORM 
          0                 1           2             4    7     1       0.2435005161E-01       4    7    1         0.1279696549E+01      0.3065828177E+01
          0                 2           2             4    7     1      -0.2367325143E-02       4    7    1        -0.1279010275E+00      0.3064626837E+00
          0                 3           2             4    7     1       0.1610846029E-03       4    7    1         0.8946316683E-02      0.2144071654E-01
          0                 4           1             4    7     1      -0.6401674478E-05       4    7    1        -0.3654454952E-03      0.8761629408E-03

    ------------------------------------------------
       NWT REQUIRED            4 OUTER ITERATIONS 
       AND A TOTAL OF          7 INNER ITERATIONS.
    ------------------------------------------------

 NO OUTPUT CONTROL FOR STRESS PERIOD   12   TIME STEP   25
 
 SOLVING FOR HEAD 
                                                   Max.-Head-Change                         Max.-Flux-Residual
  Residual-Control   Outer-Iter.   Inner-Iter.     Column Row Layer    Maximum-Head-Change  Column Row Layer    Maximum-Flux-Residual          L2-NORM 
          0                 1           2             4    7     1       0.2407607686E-01       4    7    1         0.1265197915E+01      0.3035502177E+01
          0                 2           2             4    7     1      -0.2340688950E-02       4    7    1        -0.1264519258E+00      0.3034319297E+00
          0                 3           2             4    7     1       0.1592721388E-03       4    7    1         0.8844955673E-02      0.2122872369E-01
          0                 4           1             4    7     1      -0.6329644895E-05       4    7    1        -0.3613049860E-03      0.8674841677E-03

    ------------------------------------------------
       NWT REQUIRED            4 OUTER ITERATIONS 
       AND A TOTAL OF          7 INNER ITERATIONS.
    ------------------------------------------------

 NO OUTPUT CONTROL FOR STRESS PERIOD   12   TIME STEP   26
 
 SOLVING FOR HEAD 
                                                   Max.-Head-Change                         Max.-Flux-Residual
  Residual-Control   Outer-Iter.   Inner-Iter.     Column Row Layer    Maximum-Head-Change  Column Row Layer    Maximum-Flux-Residual          L2-NORM 
          0                 1           2             4    7     1       0.2380700581E-01       4    7    1         0.1250963300E+01      0.3005644713E+01
          0                 2           2             4    7     1      -0.2314529510E-02       4    7    1        -0.1250292127E+00      0.3004478903E+00
          0                 3           2             4    7     1       0.1574921159E-03       4    7    1         0.8745440495E-02      0.2102007982E-01
          0                 4           1             4    7     1      -0.6258904511E-05       4    7    1        -0.3572398930E-03      0.8590304115E-03

    ------------------------------------------------
       NWT REQUIRED            4 OUTER ITERATIONS 
       AND A TOTAL OF          7 INNER ITERATIONS.
    ------------------------------------------------

 NO OUTPUT CONTROL FOR STRESS PERIOD   12   TIME STEP   27
 
 SOLVING FOR HEAD 
                                                   Max.-Head-Change                         Max.-Flux-Residual
  Residual-Control   Outer-Iter.   Inner-Iter.     Column Row Layer    Maximum-Head-Change  Column Row Layer    Maximum-Flux-Residual          L2-NORM 
          0                 1           2             4    7     1       0.2354252820E-01       4    7    1         0.1236975587E+01      0.2976234292E+01
          0                 2           2             4    7     1      -0.2288816658E-02       4    7    1        -0.1236311773E+00      0.2975085434E+00
          0                 3           2             4    7     1       0.1557424815E-03       4    7    1         0.8647651475E-02      0.2081441295E-01
          0                 4           1             4    7     1      -0.6189372160E-05       4    7    1        -0.3532453197E-03      0.8505482768E-03

    ------------------------------------------------
       NWT REQUIRED            4 OUTER ITERATIONS 
       AND A TOTAL OF          7 INNER ITERATIONS.
    ------------------------------------------------

 NO OUTPUT CONTROL FOR STRESS PERIOD   12   TIME STEP   28
 
 SOLVING FOR HEAD 
                                                   Max.-Head-Change                         Max.-Flux-Residual
  Residual-Control   Outer-Iter.   Inner-Iter.     Column Row Layer    Maximum-Head-Change  Column Row Layer    Maximum-Flux-Residual          L2-NORM 
          0                 1           2             4    7     1       0.2328275880E-01       4    7    1         0.1223240728E+01      0.2947286190E+01
          0                 2           2             4    7     1      -0.2263561551E-02       4    7    1        -0.1222584144E+00      0.2946153845E+00
          0                 3           2             4    7     1       0.1540239943E-03       4    7    1         0.8551630224E-02      0.2061208831E-01
          0                 4           1             4    7     1      -0.6121076971E-05       4    7    1        -0.3493229326E-03      0.8423017055E-03

    ------------------------------------------------
       NWT REQUIRED            4 OUTER ITERATIONS 
       AND A TOTAL OF          7 INNER ITERATIONS.
    ------------------------------------------------

 NO OUTPUT CONTROL FOR STRESS PERIOD   12   TIME STEP   29
 
 SOLVING FOR HEAD 
                                                   Max.-Head-Change                         Max.-Flux-Residual
  Residual-Control   Outer-Iter.   Inner-Iter.     Column Row Layer    Maximum-Head-Change  Column Row Layer    Maximum-Flux-Residual          L2-NORM 
          0                 1           2             4    7     1       0.2302739349E-01       4    7    1         0.1209742635E+01      0.2919906097E+01
          0                 2           2             4    7     1      -0.2238734621E-02       4    7    1        -0.1209093161E+00      0.2918753479E+00
          0                 3           2             4    7     1       0.1523346431E-03       4    7    1         0.8457264280E-02      0.2042009907E-01
          0                 4           1             4    7     1      -0.6053939966E-05       4    7    1        -0.3454681726E-03      0.8344201497E-03

    ------------------------------------------------
       NWT REQUIRED            4 OUTER ITERATIONS 
       AND A TOTAL OF          7 INNER ITERATIONS.
    ------------------------------------------------

 NO OUTPUT CONTROL FOR STRESS PERIOD   12   TIME STEP   30



 STREAM LISTING     PERIOD     12   STEP       30

 LAYER ROW COL. STREAM  RCH.  FLOW INTO     FLOW TO   FLOW OUT OF   OVRLND.     DIRECT     STREAM       STREAM     STREAM     STREAM   STREAMBED  STREAMBED
                SEG.NO.  NO.  STRM. RCH.    AQUIFER    STRM. RCH.    RUNOFF     PRECIP       ET          HEAD       DEPTH      WIDTH   CONDCTNC.   GRADIENT

   1    1    1     1     1    2.5441E+01  2.4717E-01   2.5194E+01  0.000E+00  0.000E+00  0.000E+00  1.09423E+03  1.185E+00  1.313E+01  5.906E-02  1.395E+00
   1    2    2     1     2    2.5194E+01  3.8224E-01   2.4811E+01  0.000E+00  0.000E+00  0.000E+00  1.08924E+03  1.180E+00  1.306E+01  9.144E-02  1.393E+00
   1    3    3     1     3    2.4811E+01  3.2545E-01   2.4486E+01  0.000E+00  0.000E+00  0.000E+00  1.08359E+03  1.175E+00  1.299E+01  7.795E-02  1.392E+00
   1    3    4     1     4    2.4486E+01  2.9925E-01   2.4187E+01  0.000E+00  0.000E+00  0.000E+00  1.07858E+03  1.170E+00  1.293E+01  7.176E-02  1.390E+00
   1    4    5     2     1    2.2187E+01  3.2130E-01   2.1865E+01  0.000E+00  0.000E+00  0.000E+00  1.07305E+03  1.119E+00  1.200E+01  7.800E-02  1.373E+00
   1    5    6     2     2    2.1865E+01  2.4663E-01   2.1619E+01  0.000E+00  0.000E+00  0.000E+00  1.06762E+03  1.111E+00  1.200E+01  6.000E-02  1.370E+00
   1    6    6     2     3    2.1619E+01  2.4618E-01   2.1373E+01  0.000E+00  0.000E+00  0.000E+00  1.06290E+03  1.103E+00  1.200E+01  6.000E-02  1.368E+00
   1    7    6     2     4    2.1373E+01  2.4572E-01   2.1127E+01  0.000E+00  0.000E+00  0.000E+00  1.05817E+03  1.095E+00  1.200E+01  6.000E-02  1.365E+00
   1    8    6     2     5    2.1127E+01  2.4527E-01   2.0882E+01  0.000E+00  0.000E+00  0.000E+00  1.05345E+03  1.088E+00  1.200E+01  6.000E-02  1.363E+00
   1    3    5     3     1    2.0000E+00  2.8252E-01   1.7175E+00  0.000E+00  0.000E+00  0.000E+00  1.07555E+03  1.909E+00  9.636E+00  7.227E-02  1.955E+00
   1    3    6     3     2    1.7175E+00  2.4905E-01   1.4684E+00  0.000E+00  0.000E+00  0.000E+00  1.07264E+03  1.727E+00  8.909E+00  6.682E-02  1.864E+00
   1    3    7     3     3    1.4684E+00  1.9718E-01   1.2712E+00  0.000E+00  0.000E+00  0.000E+00  1.06987E+03  1.555E+00  8.218E+00  5.547E-02  1.777E+00
   1    4    8     3     4    1.2712E+00  2.2567E-01   1.0456E+00  0.000E+00  0.000E+00  0.000E+00  1.06682E+03  1.364E+00  7.455E+00  6.709E-02  1.682E+00
   1    5    8     3     5    1.0456E+00  1.5790E-01   8.8768E-01  0.000E+00  0.000E+00  0.000E+00  1.06362E+03  1.164E+00  6.655E+00  4.991E-02  1.582E+00
   1    6    8     3     6    8.8768E-01  5.5980E-02   8.3170E-01  0.000E+00  0.000E+00  0.000E+00  1.06158E+03  1.036E+00  6.145E+00  1.844E-02  1.518E+00
   1    5   10     4     1    1.0000E+01  9.0919E-02   9.9091E+00  0.000E+00  0.000E+00  0.000E+00  1.07836E+03  6.368E-01  1.000E+01  2.500E-02  1.212E+00
   1    5    9     4     2    9.9091E+00  1.8158E-01   9.7275E+00  0.000E+00  0.000E+00  0.000E+00  1.07154E+03  6.315E-01  1.000E+01  5.000E-02  1.211E+00
   1    6    8     4     3    9.7275E+00  1.2689E-01   9.6006E+00  0.000E+00  0.000E+00  0.000E+00  1.06381E+03  6.256E-01  1.000E+01  3.500E-02  1.209E+00
   1    6    8     5     1    1.0432E+01  2.2686E-01   1.0205E+01  0.000E+00  0.000E+00  0.000E+00  1.05868E+03  6.790E-01  1.542E+01  6.166E-02  1.226E+00
   1    7    7     5     2    1.0205E+01  2.7894E-01   9.9265E+00  0.000E+00  0.000E+00  0.000E+00  1.05417E+03  6.732E-01  1.519E+01  7.594E-02  1.224E+00
   1    8    7     5     3    9.9265E+00  1.9221E-01   9.7343E+00  0.000E+00  0.000E+00  0.000E+00  1.04992E+03  6.676E-01  1.497E+01  5.241E-02  1.223E+00
   1    8    6     5     4    9.7343E+00  1.3577E-01   9.5985E+00  0.000E+00  0.000E+00  0.000E+00  1.04691E+03  6.637E-01  1.482E+01  3.706E-02  1.221E+00
   1    9    6     6     1    3.0480E+01  2.6230E-01   3.0218E+01  0.000E+00  0.000E+00  0.000E+00  1.04410E+03  1.372E+00  1.200E+01  6.000E-02  1.457E+00
   1   10    7     6     2    3.0218E+01  2.6187E-01   2.9956E+01  0.000E+00  0.000E+00  0.000E+00  1.03955E+03  1.365E+00  1.200E+01  6.000E-02  1.455E+00
   1   11    7     6     3    2.9956E+01  2.6145E-01   2.9695E+01  0.000E+00  0.000E+00  0.000E+00  1.03499E+03  1.357E+00  1.200E+01  6.000E-02  1.452E+00
   1   12    7     6     4    2.9695E+01  2.6102E-01   2.9434E+01  0.000E+00  0.000E+00  0.000E+00  1.03044E+03  1.350E+00  1.200E+01  6.000E-02  1.450E+00
   1   13    7     6     5    2.9434E+01  1.4013E-03   2.9432E+01  0.000E+00  0.000E+00  0.000E+00  1.02726E+03  1.347E+00  1.200E+01  2.400E-02  1.946E-02
   1   14    9     7     1    1.5000E+02  1.3299E+00   1.4867E+02  0.000E+00  0.000E+00  0.000E+00  1.03987E+03  2.288E+00  5.529E+01  5.593E-01  7.926E-01
   1   13    8     7     2    1.4867E+02  1.7970E+00   1.4687E+02  0.000E+00  0.000E+00  0.000E+00  1.03478E+03  2.279E+00  5.526E+01  6.148E-01  9.743E-01
   1   13    7     7     3    1.4687E+02  1.3922E+00   1.4548E+02  0.000E+00  0.000E+00  0.000E+00  1.02969E+03  2.271E+00  5.522E+01  5.585E-01  8.310E-01
   1   13    6     8     1    1.7491E+02  8.6728E-01   1.7405E+02  0.000E+00  0.000E+00  0.000E+00  1.02486E+03  2.981E+00  4.323E+01  4.405E-01  6.563E-01
   1   13    5     8     2    1.7405E+02  1.2580E-01   1.7392E+02  0.000E+00  0.000E+00  0.000E+00  1.01860E+03  2.978E+00  4.318E+01  4.400E-01  9.530E-02
   1   13    4     8     3    1.7392E+02 -2.6003E+00   1.7652E+02  0.000E+00  0.000E+00  0.000E+00  1.01236E+03  2.986E+00  4.330E+01  4.412E+00 -1.965E-01
   1   13    3     8     4    1.7652E+02 -3.7563E+00   1.8028E+02  0.000E+00  0.000E+00  0.000E+00  1.00613E+03  3.006E+00  4.359E+01  4.442E+00 -2.819E-01
   1   13    2     8     5    1.8028E+02 -2.6290E+00   1.8291E+02  0.000E+00  0.000E+00  0.000E+00  9.99901E+02  3.026E+00  4.388E+01  4.471E+00 -1.960E-01
   1   13    1     8     6    1.8291E+02 -2.0231E+00   1.8493E+02  0.000E+00  0.000E+00  0.000E+00  9.94916E+02  3.041E+00  4.409E+01  2.696E+00 -2.502E-01





UNSATURATED ZONE PACKAGE VOLUMETRIC BUDGET FOR  TIME STEP    30 STRESS PERIOD   12
  ------------------------------------------------------------------------------



     CUMULATIVE VOLUMES      L**3       RATES FOR THIS TIME STEP      L**3/T
     ------------------                 ------------------------

           IN:                                      IN:
           ---                                      ---
        INFILTRATION =   500869358.3721          INFILTRATION =           0.8475

          OUT:                                     OUT:
          ----                                     ----
              UZF ET =   428150250.1573                UZF ET =           0.7500
        UZF RECHARGE =    72391023.9923          UZF RECHARGE =           0.0003

            IN - OUT =      328084.2225              IN - OUT =       9.7215E-02

          STORAGE:                                 STORAGE:
          --------                                 --------
      STORAGE CHANGE =      328090.3295        STORAGE CHANGE =       9.7215E-02

 PERCENT DISCREPANCY IS DIFFERENCE BETWEEN IN-OUT MINUS CHANGE IN STORAGE
 DIVIDED BY THE AVERAGE OF IN AND OUT TIMES 100

 PERCENT DISCREPANCY =          -0.00     PERCENT DISCREPANCY =           0.00






1
  VOLUMETRIC BUDGET FOR AGRICULTURAL FIELDS AT  END OF TIME STEP   30, STRESS PERIOD  12
  ------------------------------------------------------------------------------

     CUMULATIVE VOLUMES      L**3       RATES FOR THIS TIME STEP      L**3/T
     ------------------                 ------------------------

           IN:                                      IN:
           ---                                      ---
               AG WELLS  =   476277312.0000                 AG WELLS  =           0.0000
      DIVERSION SEGMENTS =           0.0000        DIVERSION SEGMENTS =           0.0000
           GW IRRIGATION =           0.0000             GW IRRIGATION =           0.0000
           SW IRRIGATION =           0.0000             SW IRRIGATION =           0.0000
        SYSTEM LOSSES GW =           0.0000          SYSTEM LOSSES GW =           0.0000
        SYSTEM LOSSES SW =           0.0000          SYSTEM LOSSES SW =           0.0000

                TOTAL IN =   476277312.0000                  TOTAL IN =           0.0000

          OUT:                                     OUT:
          ----                                     ----
               AG WELLS  =           0.0000                 AG WELLS  =           0.0000
      DIVERSION SEGMENTS =           0.0000        DIVERSION SEGMENTS =           0.0000
           GW IRRIGATION =   476277312.0000             GW IRRIGATION =           0.0000
           SW IRRIGATION =           0.0000             SW IRRIGATION =           0.0000
        SYSTEM LOSSES GW =           0.0000          SYSTEM LOSSES GW =           0.0000
        SYSTEM LOSSES SW =           0.0000          SYSTEM LOSSES SW =           0.0000

               TOTAL OUT =   476277312.0000                 TOTAL OUT =           0.0000

                IN - OUT =           0.0000                  IN - OUT =           0.0000

     PERCENT DISCREPANCY =           0.00         PERCENT DISCREPANCY =           0.00



1
  VOLUMETRIC BUDGET FOR ENTIRE MODEL AT END OF TIME STEP   30, STRESS PERIOD  12
  ------------------------------------------------------------------------------

     CUMULATIVE VOLUMES      L**3       RATES FOR THIS TIME STEP      L**3/T
     ------------------                 ------------------------

           IN:                                      IN:
           ---                                      ---
             STORAGE     =   575622784.0000               STORAGE     =           8.7178
       CONSTANT HEAD     =           0.0000         CONSTANT HEAD     =           0.0000
     HEAD DEP BOUNDS     =     8282453.5000       HEAD DEP BOUNDS     =           0.2854
      STREAM LEAKAGE     =   364447136.0000        STREAM LEAKAGE     =          11.5209
        UZF RECHARGE     =    72391032.0000          UZF RECHARGE     =       2.8477E-04
               GW ET     =           0.0000                 GW ET     =           0.0000
     SURFACE LEAKAGE     =           0.0000       SURFACE LEAKAGE     =           0.0000
           AG WELLS      =           0.0000             AG WELLS      =           0.0000

                TOTAL IN =  1020743424.0000                  TOTAL IN =          20.5243

          OUT:                                     OUT:
          ----                                     ----
             STORAGE     =   222529856.0000               STORAGE     =           9.2243
       CONSTANT HEAD     =           0.0000         CONSTANT HEAD     =           0.0000
     HEAD DEP BOUNDS     =     8560173.0000       HEAD DEP BOUNDS     =           0.2913
      STREAM LEAKAGE     =   299629920.0000        STREAM LEAKAGE     =          11.0087
        UZF RECHARGE     =           0.0000          UZF RECHARGE     =           0.0000
               GW ET     =    13750565.0000                 GW ET     =           0.0000
     SURFACE LEAKAGE     =           0.0000       SURFACE LEAKAGE     =           0.0000
           AG WELLS      =   476277312.0000             AG WELLS      =           0.0000

               TOTAL OUT =  1020747840.0000                 TOTAL OUT =          20.5243

                IN - OUT =       -4416.0000                  IN - OUT =       5.7220E-06

     PERCENT DISCREPANCY =          -0.00         PERCENT DISCREPANCY =           0.00






         TIME SUMMARY AT END OF TIME STEP   30 IN STRESS PERIOD   12
                    SECONDS     MINUTES      HOURS       DAYS        YEARS
                    -----------------------------------------------------------
   TIME STEP LENGTH  87667.      1461.1      24.352      1.0147     2.77799E-03
 STRESS PERIOD TIME 2.63000E+06  43833.      730.56      30.440     8.33397E-02
         TOTAL TIME 2.90163E+07 4.83606E+05  8060.1      335.84     0.91947    
1
1
                            STRESS PERIOD NO.   13, LENGTH =   2630000.    
                            -----------------------------------------------

                              NUMBER OF TIME STEPS =    30

                               MULTIPLIER FOR DELT =     1.000

                            INITIAL TIME STEP SIZE =   87666.66    

 REUSING NON-PARAMETER GHB CELLS FROM LAST STRESS PERIOD

      2 GHB CELLS

 REUSING STREAM SEGMENT DATA FROM LAST STRESS PERIOD



            AREAL INFILTRATION RATE
 READING ON UNIT   19 WITH FORMAT: (FREE)              

            1           2           3           4           5           6           7           8           9          10
 ........................................................................................................................
   1   1.0000E-10  2.0000E-10   0.000       0.000       0.000       0.000       0.000       0.000       0.000       0.000    
   2   2.0000E-10  1.0000E-10  2.0000E-10   0.000       0.000      8.0000E-10  8.0000E-10  5.0000E-10   0.000       0.000    
   3    0.000      5.0000E-10  1.0000E-10  1.0000E-10  8.0000E-10  8.0000E-10  5.0000E-10  5.0000E-10   0.000       0.000    
   4   8.0000E-10  5.0000E-10  1.0000E-10  1.0000E-10  1.0000E-10  1.0000E-10  1.0000E-10  1.0000E-10  2.0000E-10   0.000    
   5   8.0000E-10  5.0000E-10  1.0000E-10  1.0000E-10  1.0000E-10  1.0000E-10  1.0000E-10  1.0000E-10  1.0000E-10  1.0000E-10
   6   8.0000E-10  5.0000E-10  5.0000E-10  2.0000E-10  2.0000E-10  1.0000E-10  1.0000E-10  1.0000E-10  1.0000E-10  5.0000E-10
   7   8.0000E-10  5.0000E-10  5.0000E-10  2.0000E-10  2.0000E-10  1.0000E-10  1.0000E-10  2.0000E-10  2.0000E-10   0.000    
   8    0.000      5.0000E-10  5.0000E-10  2.0000E-10  2.0000E-10  1.0000E-10  1.0000E-10  2.0000E-10  5.0000E-10   0.000    
   9    0.000      5.0000E-10  5.0000E-10  2.0000E-10  2.0000E-10  1.0000E-10  1.0000E-10  2.0000E-10  5.0000E-10   0.000    
  10    0.000      5.0000E-10  5.0000E-10  2.0000E-10  2.0000E-10  1.0000E-10  1.0000E-10  2.0000E-10  5.0000E-10  8.0000E-10
  11    0.000      1.0000E-10  1.0000E-10  1.0000E-10  1.0000E-10  1.0000E-10  1.0000E-10  2.0000E-10  5.0000E-10   0.000    
  12   1.0000E-10  1.0000E-10  1.0000E-10  1.0000E-10  1.0000E-10  1.0000E-10  1.0000E-10  1.0000E-10  2.0000E-10   0.000    
  13   1.0000E-10  1.0000E-10  2.0000E-10  2.0000E-10  2.0000E-10  2.0000E-10  2.0000E-10  1.0000E-10  1.0000E-10   0.000    
  14    0.000      2.0000E-10  5.0000E-10  5.0000E-10  5.0000E-10  5.0000E-10  5.0000E-10  2.0000E-10  1.0000E-10   0.000    
  15    0.000       0.000      8.0000E-10  8.0000E-10  8.0000E-10  8.0000E-10   0.000       0.000       0.000       0.000    

                  ET RATE =  5.000000E-10

 USING ET EXTINCTION DEPTH FROM PREVIOUS STRESS PERIOD. CURRENT PERIOD IS:      13

 USING EXTINCTION WATER CONTENT FROM PREVIOUS STRESS PERIOD. CURRENT PERIOD IS:      13

 USING AIR ENTRY PRESSURE FROM PREVIOUS STRESS PERIOD. CURRENT PERIOD IS:      13

 USING ROOT PRESSURE HEAD FROM PREVIOUS STRESS PERIOD. CURRENT PERIOD IS:      13

 USING ROOT ACTIVITY FROM PREVIOUS STRESS PERIOD. CURRENT PERIOD IS:      13

 PROCESSING AG STRESS PERIOD DATA

 READING AG STRESS PERIOD DATA

 READING IRRIGATION WELL

 END PROCESSING AG STRESS PERIOD DATA OPTIONS
 
 SOLVING FOR HEAD 
                                                   Max.-Head-Change                         Max.-Flux-Residual
  Residual-Control   Outer-Iter.   Inner-Iter.     Column Row Layer    Maximum-Head-Change  Column Row Layer    Maximum-Flux-Residual          L2-NORM 
          0                 1           2             4    7     1       0.2277626859E-01       4    7    1         0.1196472885E+01      0.2898621736E+01
          0                 2           2             4    7     1      -0.2214319958E-02       4    7    1        -0.1195830407E+00      0.2897069670E+00
          0                 3           2             4    7     1       0.1506733447E-03       4    7    1         0.8364494747E-02      0.2026623952E-01
          0                 4           1             4    7     1      -0.5987917971E-05       4    7    1        -0.3416786235E-03      0.8279762464E-03

    ------------------------------------------------
       NWT REQUIRED            4 OUTER ITERATIONS 
       AND A TOTAL OF          7 INNER ITERATIONS.
    ------------------------------------------------

 NO OUTPUT CONTROL FOR STRESS PERIOD   13   TIME STEP    1
 
 SOLVING FOR HEAD 
                                                   Max.-Head-Change                         Max.-Flux-Residual
  Residual-Control   Outer-Iter.   Inner-Iter.     Column Row Layer    Maximum-Head-Change  Column Row Layer    Maximum-Flux-Residual          L2-NORM 
          0                 1           2             4    7     1       0.2252924887E-01       4    7    1         0.1183422993E+01      0.2870446743E+01
          0                 2           2             4    7     1      -0.2190304411E-02       4    7    1        -0.1182787397E+00      0.2869114286E+00
          0                 3           2             4    7     1       0.1490392047E-03       4    7    1         0.8273262278E-02      0.2007105761E-01
          0                 4           1             4    7     1      -0.5922975528E-05       4    7    1        -0.3379518896E-03      0.8200701693E-03

    ------------------------------------------------
       NWT REQUIRED            4 OUTER ITERATIONS 
       AND A TOTAL OF          7 INNER ITERATIONS.
    ------------------------------------------------

 NO OUTPUT CONTROL FOR STRESS PERIOD   13   TIME STEP    2
 
 SOLVING FOR HEAD 
                                                   Max.-Head-Change                         Max.-Flux-Residual
  Residual-Control   Outer-Iter.   Inner-Iter.     Column Row Layer    Maximum-Head-Change  Column Row Layer    Maximum-Flux-Residual          L2-NORM 
          0                 1           2             4    7     1       0.2228620715E-01       4    7    1         0.1170585946E+01      0.2842710375E+01
          0                 2           2             4    7     1      -0.2166675615E-02       4    7    1        -0.1169957126E+00      0.2841419274E+00
          0                 3           2             4    7     1       0.1474313810E-03       4    7    1         0.8183517871E-02      0.1987753105E-01
          0                 4           1             4    7     1      -0.5859078443E-05       4    7    1        -0.3342859113E-03      0.8121498894E-03

    ------------------------------------------------
       NWT REQUIRED            4 OUTER ITERATIONS 
       AND A TOTAL OF          7 INNER ITERATIONS.
    ------------------------------------------------

 NO OUTPUT CONTROL FOR STRESS PERIOD   13   TIME STEP    3
 
 SOLVING FOR HEAD 
                                                   Max.-Head-Change                         Max.-Flux-Residual
  Residual-Control   Outer-Iter.   Inner-Iter.     Column Row Layer    Maximum-Head-Change  Column Row Layer    Maximum-Flux-Residual          L2-NORM 
          0                 1           2             4    7     1       0.2204715577E-01       4    7    1         0.1157962500E+01      0.2815429160E+01
          0                 2           2             4    7     1      -0.2143434769E-02       4    7    1        -0.1157340344E+00      0.2814175475E+00
          0                 3           2             4    7     1       0.1458499560E-03       4    7    1         0.8095266802E-02      0.1968710813E-01
          0                 4           1             4    7     1      -0.5796230746E-05       4    7    1        -0.3306809401E-03      0.8044740073E-03

    ------------------------------------------------
       NWT REQUIRED            4 OUTER ITERATIONS 
       AND A TOTAL OF          7 INNER ITERATIONS.
    ------------------------------------------------

 NO OUTPUT CONTROL FOR STRESS PERIOD   13   TIME STEP    4
 
 SOLVING FOR HEAD 
                                                   Max.-Head-Change                         Max.-Flux-Residual
  Residual-Control   Outer-Iter.   Inner-Iter.     Column Row Layer    Maximum-Head-Change  Column Row Layer    Maximum-Flux-Residual          L2-NORM 
          0                 1           2             4    7     1       0.2181197201E-01       4    7    1         0.1145545946E+01      0.2788578825E+01
          0                 2           2             4    7     1      -0.2120569944E-02       4    7    1        -0.1144930349E+00      0.2787359292E+00
          0                 3           2             4    7     1       0.1442941175E-03       4    7    1         0.8008462135E-02      0.1949975976E-01
          0                 4           1             4    7     1      -0.5734400087E-05       4    7    1        -0.3271350888E-03      0.7967776311E-03

    ------------------------------------------------
       NWT REQUIRED            4 OUTER ITERATIONS 
       AND A TOTAL OF          7 INNER ITERATIONS.
    ------------------------------------------------

 NO OUTPUT CONTROL FOR STRESS PERIOD   13   TIME STEP    5
 
 SOLVING FOR HEAD 
                                                   Max.-Head-Change                         Max.-Flux-Residual
  Residual-Control   Outer-Iter.   Inner-Iter.     Column Row Layer    Maximum-Head-Change  Column Row Layer    Maximum-Flux-Residual          L2-NORM 
          0                 1           2             4    7     1       0.2158041050E-01       4    7    1         0.1133322572E+01      0.2762155321E+01
          0                 2           2             4    7     1      -0.2098057281E-02       4    7    1        -0.1132713436E+00      0.2760966636E+00
          0                 3           2             4    7     1       0.1427622417E-03       4    7    1         0.7923008051E-02      0.1931532408E-01
          0                 4           1             4    7     1      -0.5673521303E-05       4    7    1        -0.3236443631E-03      0.7892372554E-03

    ------------------------------------------------
       NWT REQUIRED            4 OUTER ITERATIONS 
       AND A TOTAL OF          7 INNER ITERATIONS.
    ------------------------------------------------

 NO OUTPUT CONTROL FOR STRESS PERIOD   13   TIME STEP    6
 
 SOLVING FOR HEAD 
                                                   Max.-Head-Change                         Max.-Flux-Residual
  Residual-Control   Outer-Iter.   Inner-Iter.     Column Row Layer    Maximum-Head-Change  Column Row Layer    Maximum-Flux-Residual          L2-NORM 
          0                 1           2             4    7     1       0.2135236536E-01       4    7    1         0.1121287005E+01      0.2736128538E+01
          0                 2           2             4    7     1      -0.2075886489E-02       4    7    1        -0.1120684233E+00      0.2734969113E+00
          0                 3           2             4    7     1       0.1412536291E-03       4    7    1         0.7838866963E-02      0.1913357637E-01
          0                 4           1             4    7     1      -0.5613567339E-05       4    7    1        -0.3202073001E-03      0.7818453383E-03

    ------------------------------------------------
       NWT REQUIRED            4 OUTER ITERATIONS 
       AND A TOTAL OF          7 INNER ITERATIONS.
    ------------------------------------------------

 NO OUTPUT CONTROL FOR STRESS PERIOD   13   TIME STEP    7
 
 SOLVING FOR HEAD 
                                                   Max.-Head-Change                         Max.-Flux-Residual
  Residual-Control   Outer-Iter.   Inner-Iter.     Column Row Layer    Maximum-Head-Change  Column Row Layer    Maximum-Flux-Residual          L2-NORM 
          0                 1           2             4    7     1       0.2112787904E-01       4    7    1         0.1109441105E+01      0.2710507741E+01
          0                 2           2             4    7     1      -0.2054061691E-02       4    7    1        -0.1108844598E+00      0.2709337709E+00
          0                 3           2             4    7     1       0.1397685591E-03       4    7    1         0.7756051839E-02      0.1895442741E-01
          0                 4           1             4    7     1      -0.5554548671E-05       4    7    1        -0.3168243827E-03      0.7744867799E-03

    ------------------------------------------------
       NWT REQUIRED            4 OUTER ITERATIONS 
       AND A TOTAL OF          7 INNER ITERATIONS.
    ------------------------------------------------

 NO OUTPUT CONTROL FOR STRESS PERIOD   13   TIME STEP    8
 
 SOLVING FOR HEAD 
                                                   Max.-Head-Change                         Max.-Flux-Residual
  Residual-Control   Outer-Iter.   Inner-Iter.     Column Row Layer    Maximum-Head-Change  Column Row Layer    Maximum-Flux-Residual          L2-NORM 
          0                 1           2             4    7     1       0.2090685026E-01       4    7    1         0.1097779723E+01      0.2685258512E+01
          0                 2           2             4    7     1      -0.2032573045E-02       4    7    1        -0.1097189388E+00      0.2684153989E+00
          0                 3           2             4    7     1       0.1383063634E-03       4    7    1         0.7674526736E-02      0.1877841662E-01
          0                 4           1             4    7     1      -0.5496439857E-05       4    7    1        -0.3134941840E-03      0.7673240669E-03

    ------------------------------------------------
       NWT REQUIRED            4 OUTER ITERATIONS 
       AND A TOTAL OF          7 INNER ITERATIONS.
    ------------------------------------------------

 NO OUTPUT CONTROL FOR STRESS PERIOD   13   TIME STEP    9
 
 SOLVING FOR HEAD 
                                                   Max.-Head-Change                         Max.-Flux-Residual
  Residual-Control   Outer-Iter.   Inner-Iter.     Column Row Layer    Maximum-Head-Change  Column Row Layer    Maximum-Flux-Residual          L2-NORM 
          0                 1           2             4    7     1       0.2068905096E-01       4    7    1         0.1086290259E+01      0.2660391243E+01
          0                 2           2             4    7     1      -0.2011398375E-02       4    7    1        -0.1085706006E+00      0.2659309369E+00
          0                 3           2             4    7     1       0.1368655319E-03       4    7    1         0.7594203538E-02      0.1860463631E-01
          0                 4           1             4    7     1      -0.5439179072E-05       4    7    1        -0.3102130593E-03      0.7601912413E-03

    ------------------------------------------------
       NWT REQUIRED            4 OUTER ITERATIONS 
       AND A TOTAL OF          7 INNER ITERATIONS.
    ------------------------------------------------

 NO OUTPUT CONTROL FOR STRESS PERIOD   13   TIME STEP   10
 
 SOLVING FOR HEAD 
                                                   Max.-Head-Change                         Max.-Flux-Residual
  Residual-Control   Outer-Iter.   Inner-Iter.     Column Row Layer    Maximum-Head-Change  Column Row Layer    Maximum-Flux-Residual          L2-NORM 
          0                 1           2             4    7     1       0.2047453320E-01       4    7    1         0.1074975587E+01      0.2635888236E+01
          0                 2           2             4    7     1      -0.1990542743E-02       4    7    1        -0.1074397327E+00      0.2634827507E+00
          0                 3           2             4    7     1       0.1354464096E-03       4    7    1         0.7515102348E-02      0.1843355855E-01
          0                 4           1             4    7     1      -0.5382781284E-05       4    7    1        -0.3069818579E-03      0.7532814653E-03

    ------------------------------------------------
       NWT REQUIRED            4 OUTER ITERATIONS 
       AND A TOTAL OF          7 INNER ITERATIONS.
    ------------------------------------------------

 NO OUTPUT CONTROL FOR STRESS PERIOD   13   TIME STEP   11
 
 SOLVING FOR HEAD 
                                                   Max.-Head-Change                         Max.-Flux-Residual
  Residual-Control   Outer-Iter.   Inner-Iter.     Column Row Layer    Maximum-Head-Change  Column Row Layer    Maximum-Flux-Residual          L2-NORM 
          0                 1           2             4    7     1       0.2026321131E-01       4    7    1         0.1063831057E+01      0.2611728862E+01
          0                 2           2             4    7     1      -0.1969997820E-02       4    7    1        -0.1063258702E+00      0.2610687663E+00
          0                 3           2             4    7     1       0.1340484296E-03       4    7    1         0.7437190639E-02      0.1826472757E-01
          0                 4           1             4    7     1      -0.5327224273E-05       4    7    1        -0.3037992576E-03      0.7463461375E-03

    ------------------------------------------------
       NWT REQUIRED            4 OUTER ITERATIONS 
       AND A TOTAL OF          7 INNER ITERATIONS.
    ------------------------------------------------

 NO OUTPUT CONTROL FOR STRESS PERIOD   13   TIME STEP   12
 
 SOLVING FOR HEAD 
                                                   Max.-Head-Change                         Max.-Flux-Residual
  Residual-Control   Outer-Iter.   Inner-Iter.     Column Row Layer    Maximum-Head-Change  Column Row Layer    Maximum-Flux-Residual          L2-NORM 
          0                 1           2             4    7     1       0.2005500588E-01       4    7    1         0.1052852227E+01      0.2587916811E+01
          0                 2           2             4    7     1      -0.1949755885E-02       4    7    1        -0.1052285691E+00      0.2586893988E+00
          0                 3           2             4    7     1       0.1326710666E-03       4    7    1         0.7360437387E-02      0.1809836286E-01
          0                 4           1             4    7     1      -0.5272486280E-05       4    7    1        -0.3006639631E-03      0.7395417688E-03

    ------------------------------------------------
       NWT REQUIRED            4 OUTER ITERATIONS 
       AND A TOTAL OF          7 INNER ITERATIONS.
    ------------------------------------------------

 NO OUTPUT CONTROL FOR STRESS PERIOD   13   TIME STEP   13
 
 SOLVING FOR HEAD 
                                                   Max.-Head-Change                         Max.-Flux-Residual
  Residual-Control   Outer-Iter.   Inner-Iter.     Column Row Layer    Maximum-Head-Change  Column Row Layer    Maximum-Flux-Residual          L2-NORM 
          0                 1           2             4    7     1       0.1984983692E-01       4    7    1         0.1042034981E+01      0.2564441614E+01
          0                 2           2             4    7     1      -0.1929809163E-02       4    7    1        -0.1041474179E+00      0.2563436421E+00
          0                 3           2             4    7     1       0.1313137916E-03       4    7    1         0.7284813777E-02      0.1793434392E-01
          0                 4           1             4    7     1      -0.5218546697E-05       4    7    1        -0.2975748359E-03      0.7329164995E-03

    ------------------------------------------------
       NWT REQUIRED            4 OUTER ITERATIONS 
       AND A TOTAL OF          7 INNER ITERATIONS.
    ------------------------------------------------

 NO OUTPUT CONTROL FOR STRESS PERIOD   13   TIME STEP   14
 
 SOLVING FOR HEAD 
                                                   Max.-Head-Change                         Max.-Flux-Residual
  Residual-Control   Outer-Iter.   Inner-Iter.     Column Row Layer    Maximum-Head-Change  Column Row Layer    Maximum-Flux-Residual          L2-NORM 
          0                 1           2             4    7     1       0.1964763271E-01       4    7    1         0.1031375170E+01      0.2541297747E+01
          0                 2           2             4    7     1      -0.1910150678E-02       4    7    1        -0.1030820022E+00      0.2540309001E+00
          0                 3           2             4    7     1       0.1299761293E-03       4    7    1         0.7210290802E-02      0.1777259023E-01
          0                 4           1             4    7     1      -0.5165386412E-05       4    7    1        -0.2945306528E-03      0.7262294096E-03

    ------------------------------------------------
       NWT REQUIRED            4 OUTER ITERATIONS 
       AND A TOTAL OF          7 INNER ITERATIONS.
    ------------------------------------------------

 NO OUTPUT CONTROL FOR STRESS PERIOD   13   TIME STEP   15
 
 SOLVING FOR HEAD 
                                                   Max.-Head-Change                         Max.-Flux-Residual
  Residual-Control   Outer-Iter.   Inner-Iter.     Column Row Layer    Maximum-Head-Change  Column Row Layer    Maximum-Flux-Residual          L2-NORM 
          0                 1           2             4    7     1       0.1944818557E-01       4    7    1         0.1020861723E+01      0.2518461022E+01
          0                 2           2             4    7     1      -0.1890760241E-02       4    7    1        -0.1020312154E+00      0.2517487941E+00
          0                 3           2             4    7     1       0.1286567065E-03       4    7    1         0.7136791101E-02      0.1761298922E-01
          0                 4           1             4    7     1      -0.5112950971E-05       4    7    1        -0.2915282680E-03      0.7197353123E-03

    ------------------------------------------------
       NWT REQUIRED            4 OUTER ITERATIONS 
       AND A TOTAL OF          7 INNER ITERATIONS.
    ------------------------------------------------

 NO OUTPUT CONTROL FOR STRESS PERIOD   13   TIME STEP   16
 
 SOLVING FOR HEAD 
                                                   Max.-Head-Change                         Max.-Flux-Residual
  Residual-Control   Outer-Iter.   Inner-Iter.     Column Row Layer    Maximum-Head-Change  Column Row Layer    Maximum-Flux-Residual          L2-NORM 
          0                 1           2             4    7     1       0.1925170534E-01       4    7    1         0.1010505930E+01      0.2495948399E+01
          0                 2           2             4    7     1      -0.1871658253E-02       4    7    1        -0.1009961857E+00      0.2494990828E+00
          0                 3           2             4    7     1       0.1273569117E-03       4    7    1         0.7064393580E-02      0.1745567774E-01
          0                 4           1             4    7     1      -0.5061295634E-05       4    7    1        -0.2885709216E-03      0.7133171964E-03

    ------------------------------------------------
       NWT REQUIRED            4 OUTER ITERATIONS 
       AND A TOTAL OF          7 INNER ITERATIONS.
    ------------------------------------------------

 NO OUTPUT CONTROL FOR STRESS PERIOD   13   TIME STEP   17
 
 SOLVING FOR HEAD 
                                                   Max.-Head-Change                         Max.-Flux-Residual
  Residual-Control   Outer-Iter.   Inner-Iter.     Column Row Layer    Maximum-Head-Change  Column Row Layer    Maximum-Flux-Residual          L2-NORM 
          0                 1           2             4    7     1       0.1905798603E-01       4    7    1         0.1000296614E+01      0.2473741293E+01
          0                 2           2             4    7     1      -0.1852824686E-02       4    7    1        -0.9997579612E-01      0.2472797374E+00
          0                 3           2             4    7     1       0.1260753811E-03       4    7    1         0.6993020077E-02      0.1730040898E-01
          0                 4           1             4    7     1      -0.5010366177E-05       4    7    1        -0.2856553858E-03      0.7069358239E-03

    ------------------------------------------------
       NWT REQUIRED            4 OUTER ITERATIONS 
       AND A TOTAL OF          7 INNER ITERATIONS.
    ------------------------------------------------

 NO OUTPUT CONTROL FOR STRESS PERIOD   13   TIME STEP   18
 
 SOLVING FOR HEAD 
                                                   Max.-Head-Change                         Max.-Flux-Residual
  Residual-Control   Outer-Iter.   Inner-Iter.     Column Row Layer    Maximum-Head-Change  Column Row Layer    Maximum-Flux-Residual          L2-NORM 
          0                 1           2             4    7     1       0.1886696544E-01       4    7    1         0.9902304467E+00      0.2451834956E+01
          0                 2           2             4    7     1      -0.1834253493E-02       4    7    1        -0.9896971391E-01      0.2450904964E+00
          0                 3           2             4    7     1       0.1248117043E-03       4    7    1         0.6922647358E-02      0.1714734750E-01
          0                 4           1             4    7     1      -0.4960146137E-05       4    7    1        -0.2827807486E-03      0.7007399476E-03

    ------------------------------------------------
       NWT REQUIRED            4 OUTER ITERATIONS 
       AND A TOTAL OF          7 INNER ITERATIONS.
    ------------------------------------------------

 NO OUTPUT CONTROL FOR STRESS PERIOD   13   TIME STEP   19
 
 SOLVING FOR HEAD 
                                                   Max.-Head-Change                         Max.-Flux-Residual
  Residual-Control   Outer-Iter.   Inner-Iter.     Column Row Layer    Maximum-Head-Change  Column Row Layer    Maximum-Flux-Residual          L2-NORM 
          0                 1           2             4    7     1       0.1867858112E-01       4    7    1         0.9803042033E+00      0.2430219776E+01
          0                 2           2             4    7     1      -0.1815938603E-02       4    7    1        -0.9797761685E-01      0.2429302167E+00
          0                 3           2             4    7     1       0.1235654671E-03       4    7    1         0.6853252841E-02      0.1699623996E-01
          0                 4           1             4    7     1      -0.4910619509E-05       4    7    1        -0.2799460631E-03      0.6945746550E-03

    ------------------------------------------------
       NWT REQUIRED            4 OUTER ITERATIONS 
       AND A TOTAL OF          7 INNER ITERATIONS.
    ------------------------------------------------

 NO OUTPUT CONTROL FOR STRESS PERIOD   13   TIME STEP   20
 
 SOLVING FOR HEAD 
                                                   Max.-Head-Change                         Max.-Flux-Residual
  Residual-Control   Outer-Iter.   Inner-Iter.     Column Row Layer    Maximum-Head-Change  Column Row Layer    Maximum-Flux-Residual          L2-NORM 
          0                 1           2             4    7     1       0.1849277541E-01       4    7    1         0.9705146456E+00      0.2408890920E+01
          0                 2           2             4    7     1      -0.1797874410E-02       4    7    1        -0.9699918127E-01      0.2407986139E+00
          0                 3           2             4    7     1       0.1223362890E-03       4    7    1         0.6784813940E-02      0.1684712124E-01
          0                 4           1             4    7     1      -0.4861770408E-05       4    7    1        -0.2771504105E-03      0.6884427109E-03

    ------------------------------------------------
       NWT REQUIRED            4 OUTER ITERATIONS 
       AND A TOTAL OF          7 INNER ITERATIONS.
    ------------------------------------------------

 NO OUTPUT CONTROL FOR STRESS PERIOD   13   TIME STEP   21
 
 SOLVING FOR HEAD 
                                                   Max.-Head-Change                         Max.-Flux-Residual
  Residual-Control   Outer-Iter.   Inner-Iter.     Column Row Layer    Maximum-Head-Change  Column Row Layer    Maximum-Flux-Residual          L2-NORM 
          0                 1           2             4    7     1       0.1830949626E-01       4    7    1         0.9608587838E+00      0.2387852765E+01
          0                 2           2             4    7     1      -0.1780055853E-02       4    7    1        -0.9603410828E-01      0.2386960163E+00
          0                 3           2             4    7     1       0.1211238255E-03       4    7    1         0.6717309728E-02      0.1670004387E-01
          0                 4           1             4    7     1      -0.4813585478E-05       4    7    1        -0.2743929372E-03      0.6824317737E-03

    ------------------------------------------------
       NWT REQUIRED            4 OUTER ITERATIONS 
       AND A TOTAL OF          7 INNER ITERATIONS.
    ------------------------------------------------

 NO OUTPUT CONTROL FOR STRESS PERIOD   13   TIME STEP   22
 
 SOLVING FOR HEAD 
                                                   Max.-Head-Change                         Max.-Flux-Residual
  Residual-Control   Outer-Iter.   Inner-Iter.     Column Row Layer    Maximum-Head-Change  Column Row Layer    Maximum-Flux-Residual          L2-NORM 
          0                 1           2             4    7     1       0.1812882386E-01       4    7    1         0.9513412744E+00      0.2367088857E+01
          0                 2           2             4    7     1      -0.1762490729E-02       4    7    1        -0.9508286336E-01      0.2366207226E+00
          0                 3           2             4    7     1       0.1199286060E-03       4    7    1         0.6650772706E-02      0.1655489099E-01
          0                 4           1             4    7     1      -0.4766086478E-05       4    7    1        -0.2716749759E-03      0.6765301852E-03

    ------------------------------------------------
       NWT REQUIRED            4 OUTER ITERATIONS 
       AND A TOTAL OF          7 INNER ITERATIONS.
    ------------------------------------------------

 NO OUTPUT CONTROL FOR STRESS PERIOD   13   TIME STEP   23
 
 SOLVING FOR HEAD 
                                                   Max.-Head-Change                         Max.-Flux-Residual
  Residual-Control   Outer-Iter.   Inner-Iter.     Column Row Layer    Maximum-Head-Change  Column Row Layer    Maximum-Flux-Residual          L2-NORM 
          0                 1           2             4    7     1       0.1795056711E-01       4    7    1         0.9419515658E+00      0.2346596318E+01
          0                 2           2             4    7     1      -0.1745160458E-02       4    7    1        -0.9414439184E-01      0.2345726321E+00
          0                 3           2             4    7     1       0.1187493680E-03       4    7    1         0.6585129197E-02      0.1641164448E-01
          0                 4           1             4    7     1      -0.4719222176E-05       4    7    1        -0.2689935179E-03      0.6706851355E-03

    ------------------------------------------------
       NWT REQUIRED            4 OUTER ITERATIONS 
       AND A TOTAL OF          7 INNER ITERATIONS.
    ------------------------------------------------

 NO OUTPUT CONTROL FOR STRESS PERIOD   13   TIME STEP   24
 
 SOLVING FOR HEAD 
                                                   Max.-Head-Change                         Max.-Flux-Residual
  Residual-Control   Outer-Iter.   Inner-Iter.     Column Row Layer    Maximum-Head-Change  Column Row Layer    Maximum-Flux-Residual          L2-NORM 
          0                 1           2             4    7     1       0.1777467374E-01       4    7    1         0.9326871045E+00      0.2326369644E+01
          0                 2           2             4    7     1      -0.1728059933E-02       4    7    1        -0.9321843849E-01      0.2325545944E+00
          0                 3           1             4    7     1       0.1175857412E-03       4    7    1         0.6520361281E-02      0.1626867317E-01
          0                 4           1             4    7     1      -0.4672980600E-05       4    7    1        -0.2663478235E-03      0.6648208650E-03

    ------------------------------------------------
       NWT REQUIRED            4 OUTER ITERATIONS 
       AND A TOTAL OF          6 INNER ITERATIONS.
    ------------------------------------------------

 NO OUTPUT CONTROL FOR STRESS PERIOD   13   TIME STEP   25
 
 SOLVING FOR HEAD 
                                                   Max.-Head-Change                         Max.-Flux-Residual
  Residual-Control   Outer-Iter.   Inner-Iter.     Column Row Layer    Maximum-Head-Change  Column Row Layer    Maximum-Flux-Residual          L2-NORM 
          0                 1           2             4    7     1       0.1760123542E-01       4    7    1         0.9235525350E+00      0.2306411058E+01
          0                 2           2             4    7     1      -0.1711198940E-02       4    7    1        -0.9230546755E-01      0.2306093494E+00
          0                 3           1             4    7     1       0.1164384593E-03       4    7    1         0.6456501473E-02      0.1613440381E-01
          0                 4           1             4    7     1      -0.4627386501E-05       4    7    1        -0.2637392311E-03      0.6593304917E-03

    ------------------------------------------------
       NWT REQUIRED            4 OUTER ITERATIONS 
       AND A TOTAL OF          6 INNER ITERATIONS.
    ------------------------------------------------

 NO OUTPUT CONTROL FOR STRESS PERIOD   13   TIME STEP   26
 
 SOLVING FOR HEAD 
                                                   Max.-Head-Change                         Max.-Flux-Residual
  Residual-Control   Outer-Iter.   Inner-Iter.     Column Row Layer    Maximum-Head-Change  Column Row Layer    Maximum-Flux-Residual          L2-NORM 
          0                 1           2             4    7     1       0.1743005888E-01       4    7    1         0.9145378583E+00      0.2286662005E+01
          0                 2           2             4    7     1      -0.1694556221E-02       4    7    1        -0.9140447965E-01      0.2285823660E+00
          0                 3           1             4    7     1       0.1153060052E-03       4    7    1         0.6393479834E-02      0.1599262499E-01
          0                 4           1             4    7     1      -0.4582381395E-05       4    7    1        -0.2611648517E-03      0.6535606960E-03

    ------------------------------------------------
       NWT REQUIRED            4 OUTER ITERATIONS 
       AND A TOTAL OF          6 INNER ITERATIONS.
    ------------------------------------------------

 NO OUTPUT CONTROL FOR STRESS PERIOD   13   TIME STEP   27
 
 SOLVING FOR HEAD 
                                                   Max.-Head-Change                         Max.-Flux-Residual
  Residual-Control   Outer-Iter.   Inner-Iter.     Column Row Layer    Maximum-Head-Change  Column Row Layer    Maximum-Flux-Residual          L2-NORM 
          0                 1           2             4    7     1       0.1726123864E-01       4    7    1         0.9056478914E+00      0.2267163008E+01
          0                 2           2             4    7     1      -0.1678143382E-02       4    7    1        -0.9051595621E-01      0.2266334779E+00
          0                 3           1             4    7     1       0.1141891936E-03       4    7    1         0.6331330047E-02      0.1585629593E-01
          0                 4           1             4    7     1      -0.4537998209E-05       4    7    1        -0.2586261203E-03      0.6479854927E-03

    ------------------------------------------------
       NWT REQUIRED            4 OUTER ITERATIONS 
       AND A TOTAL OF          6 INNER ITERATIONS.
    ------------------------------------------------

 NO OUTPUT CONTROL FOR STRESS PERIOD   13   TIME STEP   28
 
 SOLVING FOR HEAD 
                                                   Max.-Head-Change                         Max.-Flux-Residual
  Residual-Control   Outer-Iter.   Inner-Iter.     Column Row Layer    Maximum-Head-Change  Column Row Layer    Maximum-Flux-Residual          L2-NORM 
          0                 1           2             4    7     1       0.1709458824E-01       4    7    1         0.8968726963E+00      0.2247921261E+01
          0                 2           2             4    7     1      -0.1661941498E-02       4    7    1        -0.8963890392E-01      0.2247102301E+00
          0                 3           1             4    7     1       0.1130867362E-03       4    7    1         0.6269982621E-02      0.1572176097E-01
          0                 4           1             4    7     1      -0.4494185364E-05       4    7    1        -0.2561201532E-03      0.6425005340E-03

    ------------------------------------------------
       NWT REQUIRED            4 OUTER ITERATIONS 
       AND A TOTAL OF          6 INNER ITERATIONS.
    ------------------------------------------------

 NO OUTPUT CONTROL FOR STRESS PERIOD   13   TIME STEP   29
 
 SOLVING FOR HEAD 
                                                   Max.-Head-Change                         Max.-Flux-Residual
  Residual-Control   Outer-Iter.   Inner-Iter.     Column Row Layer    Maximum-Head-Change  Column Row Layer    Maximum-Flux-Residual          L2-NORM 
          0                 1           2             4    7     1       0.1693020042E-01       4    7    1         0.8882173597E+00      0.2228914366E+01
          0                 2           2             4    7     1      -0.1645959586E-02       4    7    1        -0.8877383125E-01      0.2228105441E+00
          0                 3           1             4    7     1       0.1119992473E-03       4    7    1         0.6209473174E-02      0.1558904170E-01
          0                 4           1             4    7     1      -0.4450967154E-05       4    7    1        -0.2536484119E-03      0.6374599548E-03

    ------------------------------------------------
       NWT REQUIRED            4 OUTER ITERATIONS 
       AND A TOTAL OF          6 INNER ITERATIONS.
    ------------------------------------------------

 NO OUTPUT CONTROL FOR STRESS PERIOD   13   TIME STEP   30



 STREAM LISTING     PERIOD     13   STEP       30

 LAYER ROW COL. STREAM  RCH.  FLOW INTO     FLOW TO   FLOW OUT OF   OVRLND.     DIRECT     STREAM       STREAM     STREAM     STREAM   STREAMBED  STREAMBED
                SEG.NO.  NO.  STRM. RCH.    AQUIFER    STRM. RCH.    RUNOFF     PRECIP       ET          HEAD       DEPTH      WIDTH   CONDCTNC.   GRADIENT

   1    1    1     1     1    2.3000E+01  2.3574E-01   2.2764E+01  0.000E+00  0.000E+00  0.000E+00  1.09420E+03  1.148E+00  1.263E+01  5.684E-02  1.383E+00
   1    2    2     1     2    2.2764E+01  3.6445E-01   2.2400E+01  0.000E+00  0.000E+00  0.000E+00  1.08920E+03  1.143E+00  1.257E+01  8.797E-02  1.381E+00
   1    3    3     1     3    2.2400E+01  3.1019E-01   2.2089E+01  0.000E+00  0.000E+00  0.000E+00  1.08356E+03  1.138E+00  1.250E+01  7.497E-02  1.379E+00
   1    3    4     1     4    2.2089E+01  2.8513E-01   2.1804E+01  0.000E+00  0.000E+00  0.000E+00  1.07854E+03  1.133E+00  1.243E+01  6.899E-02  1.378E+00
   1    4    5     2     1    1.9804E+01  3.1551E-01   1.9489E+01  0.000E+00  0.000E+00  0.000E+00  1.07298E+03  1.045E+00  1.200E+01  7.800E-02  1.348E+00
   1    5    6     2     2    1.9489E+01  2.4216E-01   1.9247E+01  0.000E+00  0.000E+00  0.000E+00  1.06755E+03  1.036E+00  1.200E+01  6.000E-02  1.345E+00
   1    6    6     2     3    1.9247E+01  2.4170E-01   1.9005E+01  0.000E+00  0.000E+00  0.000E+00  1.06282E+03  1.028E+00  1.200E+01  6.000E-02  1.343E+00
   1    7    6     2     4    1.9005E+01  2.4123E-01   1.8764E+01  0.000E+00  0.000E+00  0.000E+00  1.05810E+03  1.020E+00  1.200E+01  6.000E-02  1.340E+00
   1    8    6     2     5    1.8764E+01  2.4076E-01   1.8523E+01  0.000E+00  0.000E+00  0.000E+00  1.05337E+03  1.013E+00  1.200E+01  6.000E-02  1.338E+00
   1    3    5     3     1    2.0000E+00  2.8252E-01   1.7175E+00  0.000E+00  0.000E+00  0.000E+00  1.07555E+03  1.909E+00  9.636E+00  7.227E-02  1.955E+00
   1    3    6     3     2    1.7175E+00  2.4905E-01   1.4684E+00  0.000E+00  0.000E+00  0.000E+00  1.07264E+03  1.727E+00  8.909E+00  6.682E-02  1.864E+00
   1    3    7     3     3    1.4684E+00  1.9718E-01   1.2712E+00  0.000E+00  0.000E+00  0.000E+00  1.06987E+03  1.555E+00  8.218E+00  5.547E-02  1.777E+00
   1    4    8     3     4    1.2712E+00  2.2567E-01   1.0456E+00  0.000E+00  0.000E+00  0.000E+00  1.06682E+03  1.364E+00  7.455E+00  6.709E-02  1.682E+00
   1    5    8     3     5    1.0456E+00  1.5790E-01   8.8768E-01  0.000E+00  0.000E+00  0.000E+00  1.06362E+03  1.164E+00  6.655E+00  4.991E-02  1.582E+00
   1    6    8     3     6    8.8768E-01  5.5980E-02   8.3170E-01  0.000E+00  0.000E+00  0.000E+00  1.06158E+03  1.036E+00  6.145E+00  1.844E-02  1.518E+00
   1    5   10     4     1    1.0000E+01  9.0919E-02   9.9091E+00  0.000E+00  0.000E+00  0.000E+00  1.07836E+03  6.368E-01  1.000E+01  2.500E-02  1.212E+00
   1    5    9     4     2    9.9091E+00  1.8158E-01   9.7275E+00  0.000E+00  0.000E+00  0.000E+00  1.07154E+03  6.315E-01  1.000E+01  5.000E-02  1.211E+00
   1    6    8     4     3    9.7275E+00  1.2689E-01   9.6006E+00  0.000E+00  0.000E+00  0.000E+00  1.06381E+03  6.256E-01  1.000E+01  3.500E-02  1.209E+00
   1    6    8     5     1    1.0432E+01  2.2686E-01   1.0205E+01  0.000E+00  0.000E+00  0.000E+00  1.05868E+03  6.790E-01  1.542E+01  6.166E-02  1.226E+00
   1    7    7     5     2    1.0205E+01  2.7894E-01   9.9265E+00  0.000E+00  0.000E+00  0.000E+00  1.05417E+03  6.732E-01  1.519E+01  7.594E-02  1.224E+00
   1    8    7     5     3    9.9265E+00  1.9221E-01   9.7343E+00  0.000E+00  0.000E+00  0.000E+00  1.04992E+03  6.676E-01  1.497E+01  5.241E-02  1.223E+00
   1    8    6     5     4    9.7343E+00  1.3577E-01   9.5985E+00  0.000E+00  0.000E+00  0.000E+00  1.04691E+03  6.637E-01  1.482E+01  3.706E-02  1.221E+00
   1    9    6     6     1    2.8121E+01  2.5841E-01   2.7863E+01  0.000E+00  0.000E+00  0.000E+00  1.04403E+03  1.307E+00  1.200E+01  6.000E-02  1.436E+00
   1   10    7     6     2    2.7863E+01  2.5797E-01   2.7605E+01  0.000E+00  0.000E+00  0.000E+00  1.03948E+03  1.300E+00  1.200E+01  6.000E-02  1.433E+00
   1   11    7     6     3    2.7605E+01  2.5753E-01   2.7348E+01  0.000E+00  0.000E+00  0.000E+00  1.03493E+03  1.292E+00  1.200E+01  6.000E-02  1.431E+00
   1   12    7     6     4    2.7348E+01  2.5710E-01   2.7090E+01  0.000E+00  0.000E+00  0.000E+00  1.03038E+03  1.285E+00  1.200E+01  6.000E-02  1.428E+00
   1   13    7     6     5    2.7090E+01  5.4830E-04   2.7090E+01  0.000E+00  0.000E+00  0.000E+00  1.02719E+03  1.281E+00  1.200E+01  2.400E-02  7.615E-03
   1   14    9     7     1    1.5000E+02  1.3296E+00   1.4867E+02  0.000E+00  0.000E+00  0.000E+00  1.03987E+03  2.288E+00  5.529E+01  5.593E-01  7.924E-01
   1   13    8     7     2    1.4867E+02  1.8014E+00   1.4687E+02  0.000E+00  0.000E+00  0.000E+00  1.03478E+03  2.279E+00  5.526E+01  6.148E-01  9.767E-01
   1   13    7     7     3    1.4687E+02  1.4088E+00   1.4546E+02  0.000E+00  0.000E+00  0.000E+00  1.02969E+03  2.271E+00  5.522E+01  5.585E-01  8.409E-01
   1   13    6     8     1    1.7255E+02  8.7784E-01   1.7167E+02  0.000E+00  0.000E+00  0.000E+00  1.02484E+03  2.966E+00  4.301E+01  4.382E-01  6.677E-01
   1   13    5     8     2    1.7167E+02  1.4041E-01   1.7153E+02  0.000E+00  0.000E+00  0.000E+00  1.01859E+03  2.963E+00  4.296E+01  4.378E-01  1.069E-01
   1   13    4     8     3    1.7153E+02 -2.5375E+00   1.7407E+02  0.000E+00  0.000E+00  0.000E+00  1.01235E+03  2.970E+00  4.307E+01  4.389E+00 -1.927E-01
   1   13    3     8     4    1.7407E+02 -3.7167E+00   1.7779E+02  0.000E+00  0.000E+00  0.000E+00  1.00612E+03  2.990E+00  4.336E+01  4.419E+00 -2.804E-01
   1   13    2     8     5    1.7779E+02 -2.6038E+00   1.8039E+02  0.000E+00  0.000E+00  0.000E+00  9.99885E+02  3.010E+00  4.365E+01  4.448E+00 -1.951E-01
   1   13    1     8     6    1.8039E+02 -2.0003E+00   1.8239E+02  0.000E+00  0.000E+00  0.000E+00  9.94900E+02  3.025E+00  4.386E+01  2.682E+00 -2.486E-01





UNSATURATED ZONE PACKAGE VOLUMETRIC BUDGET FOR  TIME STEP    30 STRESS PERIOD   13
  ------------------------------------------------------------------------------



     CUMULATIVE VOLUMES      L**3       RATES FOR THIS TIME STEP      L**3/T
     ------------------                 ------------------------

           IN:                                      IN:
           ---                                      ---
        INFILTRATION =   503098283.2449          INFILTRATION =           0.8475

          OUT:                                     OUT:
          ----                                     ----
              UZF ET =   430122750.0225                UZF ET =           0.7500
        UZF RECHARGE =    72391669.4531          UZF RECHARGE =           0.0002

            IN - OUT =      583863.7693              IN - OUT =       9.7287E-02

          STORAGE:                                 STORAGE:
          --------                                 --------
      STORAGE CHANGE =      583869.8966        STORAGE CHANGE =       9.7287E-02

 PERCENT DISCREPANCY IS DIFFERENCE BETWEEN IN-OUT MINUS CHANGE IN STORAGE
 DIVIDED BY THE AVERAGE OF IN AND OUT TIMES 100

 PERCENT DISCREPANCY =          -0.00     PERCENT DISCREPANCY =           0.00






1
  VOLUMETRIC BUDGET FOR AGRICULTURAL FIELDS AT  END OF TIME STEP   30, STRESS PERIOD  13
  ------------------------------------------------------------------------------

     CUMULATIVE VOLUMES      L**3       RATES FOR THIS TIME STEP      L**3/T
     ------------------                 ------------------------

           IN:                                      IN:
           ---                                      ---
               AG WELLS  =   476277312.0000                 AG WELLS  =           0.0000
      DIVERSION SEGMENTS =           0.0000        DIVERSION SEGMENTS =           0.0000
           GW IRRIGATION =           0.0000             GW IRRIGATION =           0.0000
           SW IRRIGATION =           0.0000             SW IRRIGATION =           0.0000
        SYSTEM LOSSES GW =           0.0000          SYSTEM LOSSES GW =           0.0000
        SYSTEM LOSSES SW =           0.0000          SYSTEM LOSSES SW =           0.0000

                TOTAL IN =   476277312.0000                  TOTAL IN =           0.0000

          OUT:                                     OUT:
          ----                                     ----
               AG WELLS  =           0.0000                 AG WELLS  =           0.0000
      DIVERSION SEGMENTS =           0.0000        DIVERSION SEGMENTS =           0.0000
           GW IRRIGATION =   476277312.0000             GW IRRIGATION =           0.0000
           SW IRRIGATION =           0.0000             SW IRRIGATION =           0.0000
        SYSTEM LOSSES GW =           0.0000          SYSTEM LOSSES GW =           0.0000
        SYSTEM LOSSES SW =           0.0000          SYSTEM LOSSES SW =           0.0000

               TOTAL OUT =   476277312.0000                 TOTAL OUT =           0.0000

                IN - OUT =           0.0000                  IN - OUT =           0.0000

     PERCENT DISCREPANCY =           0.00         PERCENT DISCREPANCY =           0.00



1
  VOLUMETRIC BUDGET FOR ENTIRE MODEL AT END OF TIME STEP   30, STRESS PERIOD  13
  ------------------------------------------------------------------------------

     CUMULATIVE VOLUMES      L**3       RATES FOR THIS TIME STEP      L**3/T
     ------------------                 ------------------------

           IN:                                      IN:
           ---                                      ---
             STORAGE     =   596026432.0000               STORAGE     =           6.8193
       CONSTANT HEAD     =           0.0000         CONSTANT HEAD     =           0.0000
     HEAD DEP BOUNDS     =     9032909.0000       HEAD DEP BOUNDS     =           0.2853
      STREAM LEAKAGE     =   394527008.0000        STREAM LEAKAGE     =          11.4679
        UZF RECHARGE     =    72391688.0000          UZF RECHARGE     =       2.1302E-04
               GW ET     =           0.0000                 GW ET     =           0.0000
     SURFACE LEAKAGE     =           0.0000       SURFACE LEAKAGE     =           0.0000
           AG WELLS      =           0.0000             AG WELLS      =           0.0000

                TOTAL IN =  1071977984.0000                  TOTAL IN =          18.5728

          OUT:                                     OUT:
          ----                                     ----
             STORAGE     =   244133168.0000               STORAGE     =           7.4240
       CONSTANT HEAD     =           0.0000         CONSTANT HEAD     =           0.0000
     HEAD DEP BOUNDS     =     9325057.0000       HEAD DEP BOUNDS     =           0.2905
      STREAM LEAKAGE     =   328496192.0000        STREAM LEAKAGE     =          10.8583
        UZF RECHARGE     =           0.0000          UZF RECHARGE     =           0.0000
               GW ET     =    13750565.0000                 GW ET     =           0.0000
     SURFACE LEAKAGE     =           0.0000       SURFACE LEAKAGE     =           0.0000
           AG WELLS      =   476277312.0000             AG WELLS      =           0.0000

               TOTAL OUT =  1071982336.0000                 TOTAL OUT =          18.5728

                IN - OUT =       -4352.0000                  IN - OUT =       7.6294E-06

     PERCENT DISCREPANCY =          -0.00         PERCENT DISCREPANCY =           0.00






         TIME SUMMARY AT END OF TIME STEP   30 IN STRESS PERIOD   13
                    SECONDS     MINUTES      HOURS       DAYS        YEARS
                    -----------------------------------------------------------
   TIME STEP LENGTH  87667.      1461.1      24.352      1.0147     2.77799E-03
 STRESS PERIOD TIME 2.63000E+06  43833.      730.56      30.440     8.33397E-02
         TOTAL TIME 3.16463E+07 5.27439E+05  8790.6      366.28      1.0028    
1
1
                            STRESS PERIOD NO.   14, LENGTH =   2630000.    
                            -----------------------------------------------

                              NUMBER OF TIME STEPS =    30

                               MULTIPLIER FOR DELT =     1.000

                            INITIAL TIME STEP SIZE =   87666.66    

 REUSING NON-PARAMETER GHB CELLS FROM LAST STRESS PERIOD

      2 GHB CELLS

 REUSING STREAM SEGMENT DATA FROM LAST STRESS PERIOD



            AREAL INFILTRATION RATE
 READING ON UNIT   19 WITH FORMAT: (FREE)              

            1           2           3           4           5           6           7           8           9          10
 ........................................................................................................................
   1   1.0000E-10  2.0000E-10   0.000       0.000       0.000       0.000       0.000       0.000       0.000       0.000    
   2   2.0000E-10  1.0000E-10  2.0000E-10   0.000       0.000      8.0000E-10  8.0000E-10  5.0000E-10   0.000       0.000    
   3    0.000      5.0000E-10  1.0000E-10  1.0000E-10  8.0000E-10  8.0000E-10  5.0000E-10  5.0000E-10   0.000       0.000    
   4   8.0000E-10  5.0000E-10  1.0000E-10  1.0000E-10  1.0000E-10  1.0000E-10  1.0000E-10  1.0000E-10  2.0000E-10   0.000    
   5   8.0000E-10  5.0000E-10  1.0000E-10  1.0000E-10  1.0000E-10  1.0000E-10  1.0000E-10  1.0000E-10  1.0000E-10  1.0000E-10
   6   8.0000E-10  5.0000E-10  5.0000E-10  2.0000E-10  2.0000E-10  1.0000E-10  1.0000E-10  1.0000E-10  1.0000E-10  5.0000E-10
   7   8.0000E-10  5.0000E-10  5.0000E-10  2.0000E-10  2.0000E-10  1.0000E-10  1.0000E-10  2.0000E-10  2.0000E-10   0.000    
   8    0.000      5.0000E-10  5.0000E-10  2.0000E-10  2.0000E-10  1.0000E-10  1.0000E-10  2.0000E-10  5.0000E-10   0.000    
   9    0.000      5.0000E-10  5.0000E-10  2.0000E-10  2.0000E-10  1.0000E-10  1.0000E-10  2.0000E-10  5.0000E-10   0.000    
  10    0.000      5.0000E-10  5.0000E-10  2.0000E-10  2.0000E-10  1.0000E-10  1.0000E-10  2.0000E-10  5.0000E-10  8.0000E-10
  11    0.000      1.0000E-10  1.0000E-10  1.0000E-10  1.0000E-10  1.0000E-10  1.0000E-10  2.0000E-10  5.0000E-10   0.000    
  12   1.0000E-10  1.0000E-10  1.0000E-10  1.0000E-10  1.0000E-10  1.0000E-10  1.0000E-10  1.0000E-10  2.0000E-10   0.000    
  13   1.0000E-10  1.0000E-10  2.0000E-10  2.0000E-10  2.0000E-10  2.0000E-10  2.0000E-10  1.0000E-10  1.0000E-10   0.000    
  14    0.000      2.0000E-10  5.0000E-10  5.0000E-10  5.0000E-10  5.0000E-10  5.0000E-10  2.0000E-10  1.0000E-10   0.000    
  15    0.000       0.000      8.0000E-10  8.0000E-10  8.0000E-10  8.0000E-10   0.000       0.000       0.000       0.000    

                  ET RATE =  5.000000E-10

 USING ET EXTINCTION DEPTH FROM PREVIOUS STRESS PERIOD. CURRENT PERIOD IS:      14

 USING EXTINCTION WATER CONTENT FROM PREVIOUS STRESS PERIOD. CURRENT PERIOD IS:      14

 USING AIR ENTRY PRESSURE FROM PREVIOUS STRESS PERIOD. CURRENT PERIOD IS:      14

 USING ROOT PRESSURE HEAD FROM PREVIOUS STRESS PERIOD. CURRENT PERIOD IS:      14

 USING ROOT ACTIVITY FROM PREVIOUS STRESS PERIOD. CURRENT PERIOD IS:      14

 PROCESSING AG STRESS PERIOD DATA

 READING AG STRESS PERIOD DATA

 READING IRRIGATION WELL

 END PROCESSING AG STRESS PERIOD DATA OPTIONS
 
 SOLVING FOR HEAD 
                                                   Max.-Head-Change                         Max.-Flux-Residual
  Residual-Control   Outer-Iter.   Inner-Iter.     Column Row Layer    Maximum-Head-Change  Column Row Layer    Maximum-Flux-Residual          L2-NORM 
          0                 1           2             4    7     1       0.1676788116E-01       4    7    1         0.8796719778E+00      0.2213896613E+01
          0                 2           2             4    7     1      -0.1630178783E-02       4    7    1        -0.8791974833E-01      0.2212355360E+00
          0                 3           1             4    7     1       0.1109254429E-03       4    7    1         0.6149732427E-02      0.1547767061E-01
          0                 4           1             4    7     1      -0.4408293267E-05       4    7    1        -0.2512080823E-03      0.6324425832E-03

    ------------------------------------------------
       NWT REQUIRED            4 OUTER ITERATIONS 
       AND A TOTAL OF          6 INNER ITERATIONS.
    ------------------------------------------------

 NO OUTPUT CONTROL FOR STRESS PERIOD   14   TIME STEP    1
 
 SOLVING FOR HEAD 
                                                   Max.-Head-Change                         Max.-Flux-Residual
  Residual-Control   Outer-Iter.   Inner-Iter.     Column Row Layer    Maximum-Head-Change  Column Row Layer    Maximum-Flux-Residual          L2-NORM 
          0                 1           2             4    7     1       0.1660771033E-01       4    7    1         0.8712412036E+00      0.2205649092E+01
          0                 2           2             4    7     1      -0.1614606854E-02       4    7    1        -0.8707712025E-01      0.2204407755E+00
          0                 3           1             4    7     1       0.1098658508E-03       4    7    1         0.6090792908E-02      0.1541912530E-01
          0                 4           1             4    7     1      -0.4366183620E-05       4    7    1        -0.2488004684E-03      0.6298280264E-03

    ------------------------------------------------
       NWT REQUIRED            4 OUTER ITERATIONS 
       AND A TOTAL OF          6 INNER ITERATIONS.
    ------------------------------------------------

 NO OUTPUT CONTROL FOR STRESS PERIOD   14   TIME STEP    2
 
 SOLVING FOR HEAD 
                                                   Max.-Head-Change                         Max.-Flux-Residual
  Residual-Control   Outer-Iter.   Inner-Iter.     Column Row Layer    Maximum-Head-Change  Column Row Layer    Maximum-Flux-Residual          L2-NORM 
          0                 1           2             4    7     1       0.1644950969E-01       4    7    1         0.8629144645E+00      0.2186472688E+01
          0                 2           2             4    7     1      -0.1599226471E-02       4    7    1        -0.8624489022E-01      0.2185291825E+00
          0                 3           1             4    7     1       0.1088192931E-03       4    7    1         0.6032580715E-02      0.1528581557E-01
          0                 4           1             4    7     1      -0.4324592393E-05       4    7    1        -0.2464225770E-03      0.6243041542E-03

    ------------------------------------------------
       NWT REQUIRED            4 OUTER ITERATIONS 
       AND A TOTAL OF          6 INNER ITERATIONS.
    ------------------------------------------------

 NO OUTPUT CONTROL FOR STRESS PERIOD   14   TIME STEP    3
 
 SOLVING FOR HEAD 
                                                   Max.-Head-Change                         Max.-Flux-Residual
  Residual-Control   Outer-Iter.   Inner-Iter.     Column Row Layer    Maximum-Head-Change  Column Row Layer    Maximum-Flux-Residual          L2-NORM 
          0                 1           2             4    7     1       0.1629337717E-01       4    7    1         0.8546972339E+00      0.2167630671E+01
          0                 2           2             4    7     1      -0.1584047153E-02       4    7    1        -0.8542360533E-01      0.2166501143E+00
          0                 3           1             4    7     1       0.1077864164E-03       4    7    1         0.5975134094E-02      0.1515457533E-01
          0                 4           1             4    7     1      -0.4283544683E-05       4    7    1        -0.2440759465E-03      0.6190821901E-03

    ------------------------------------------------
       NWT REQUIRED            4 OUTER ITERATIONS 
       AND A TOTAL OF          6 INNER ITERATIONS.
    ------------------------------------------------

 NO OUTPUT CONTROL FOR STRESS PERIOD   14   TIME STEP    4
 
 SOLVING FOR HEAD 
                                                   Max.-Head-Change                         Max.-Flux-Residual
  Residual-Control   Outer-Iter.   Inner-Iter.     Column Row Layer    Maximum-Head-Change  Column Row Layer    Maximum-Flux-Residual          L2-NORM 
          0                 1           2             4    7     1       0.1613927950E-01       4    7    1         0.8465872318E+00      0.2149118859E+01
          0                 2           2             4    7     1      -0.1569065664E-02       4    7    1        -0.8461303761E-01      0.2148039024E+00
          0                 3           1             4    7     1       0.1067670013E-03       4    7    1         0.5918437131E-02      0.1502603043E-01
          0                 4           1             4    7     1      -0.4243031741E-05       4    7    1        -0.2417599337E-03      0.6139247242E-03

    ------------------------------------------------
       NWT REQUIRED            4 OUTER ITERATIONS 
       AND A TOTAL OF          6 INNER ITERATIONS.
    ------------------------------------------------

 NO OUTPUT CONTROL FOR STRESS PERIOD   14   TIME STEP    5
 
 SOLVING FOR HEAD 
                                                   Max.-Head-Change                         Max.-Flux-Residual
  Residual-Control   Outer-Iter.   Inner-Iter.     Column Row Layer    Maximum-Head-Change  Column Row Layer    Maximum-Flux-Residual          L2-NORM 
          0                 1           2             4    7     1       0.1598704151E-01       4    7    1         0.8385753751E+00      0.2130905314E+01
          0                 2           2             4    7     1      -0.1554264978E-02       4    7    1        -0.8381227929E-01      0.2129867641E+00
          0                 3           1             4    7     1       0.1057598893E-03       4    7    1         0.5862426317E-02      0.1489920449E-01
          0                 4           1             4    7     1      -0.4203008321E-05       4    7    1        -0.2394719745E-03      0.6087556830E-03

    ------------------------------------------------
       NWT REQUIRED            4 OUTER ITERATIONS 
       AND A TOTAL OF          6 INNER ITERATIONS.
    ------------------------------------------------

 NO OUTPUT CONTROL FOR STRESS PERIOD   14   TIME STEP    6
 
 SOLVING FOR HEAD 
                                                   Max.-Head-Change                         Max.-Flux-Residual
  Residual-Control   Outer-Iter.   Inner-Iter.     Column Row Layer    Maximum-Head-Change  Column Row Layer    Maximum-Flux-Residual          L2-NORM 
          0                 1           2             4    7     1       0.1583676821E-01       4    7    1         0.8306672980E+00      0.2112977783E+01
          0                 2           2             4    7     1      -0.1539655300E-02       4    7    1        -0.8302189350E-01      0.2111977864E+00
          0                 3           1             4    7     1       0.1047657737E-03       4    7    1         0.5807140996E-02      0.1477422245E-01
          0                 4           1             4    7     1      -0.4163501019E-05       4    7    1        -0.2372136337E-03      0.6035950342E-03

    ------------------------------------------------
       NWT REQUIRED            4 OUTER ITERATIONS 
       AND A TOTAL OF          6 INNER ITERATIONS.
    ------------------------------------------------

 NO OUTPUT CONTROL FOR STRESS PERIOD   14   TIME STEP    7
 
 SOLVING FOR HEAD 
                                                   Max.-Head-Change                         Max.-Flux-Residual
  Residual-Control   Outer-Iter.   Inner-Iter.     Column Row Layer    Maximum-Head-Change  Column Row Layer    Maximum-Flux-Residual          L2-NORM 
          0                 1           2             4    7     1       0.1568842265E-01       4    7    1         0.8228610865E+00      0.2095323457E+01
          0                 2           2             4    7     1      -0.1525233040E-02       4    7    1        -0.8224168890E-01      0.2094358768E+00
          0                 3           1             4    7     1       0.1037844114E-03       4    7    1         0.5752567853E-02      0.1465184114E-01
          0                 4           1             4    7     1      -0.4124500738E-05       4    7    1        -0.2349843837E-03      0.5993170220E-03

    ------------------------------------------------
       NWT REQUIRED            4 OUTER ITERATIONS 
       AND A TOTAL OF          6 INNER ITERATIONS.
    ------------------------------------------------

 NO OUTPUT CONTROL FOR STRESS PERIOD   14   TIME STEP    8
 
 SOLVING FOR HEAD 
                                                   Max.-Head-Change                         Max.-Flux-Residual
  Residual-Control   Outer-Iter.   Inner-Iter.     Column Row Layer    Maximum-Head-Change  Column Row Layer    Maximum-Flux-Residual          L2-NORM 
          0                 1           2             4    7     1       0.1554197248E-01       4    7    1         0.8151548256E+00      0.2077926815E+01
          0                 2           2             4    7     1      -0.1511017736E-02       4    7    1        -0.8147147410E-01      0.2077295401E+00
          0                 3           1             4    7     1       0.1028171303E-03       4    7    1         0.5698693377E-02      0.1453215925E-01
          0                 4           1             4    7     1      -0.4086059748E-05       4    7    1        -0.2327836637E-03      0.5937652389E-03

    ------------------------------------------------
       NWT REQUIRED            4 OUTER ITERATIONS 
       AND A TOTAL OF          6 INNER ITERATIONS.
    ------------------------------------------------

 NO OUTPUT CONTROL FOR STRESS PERIOD   14   TIME STEP    9
 
 SOLVING FOR HEAD 
                                                   Max.-Head-Change                         Max.-Flux-Residual
  Residual-Control   Outer-Iter.   Inner-Iter.     Column Row Layer    Maximum-Head-Change  Column Row Layer    Maximum-Flux-Residual          L2-NORM 
          0                 1           2             4    7     1       0.1539714685E-01       4    7    1         0.8075382691E+00      0.2060761538E+01
          0                 2           2             4    7     1      -0.1496915022E-02       4    7    1        -0.8071022539E-01      0.2059858717E+00
          0                 3           1             4    7     1       0.1018575132E-03       4    7    1         0.5645446240E-02      0.1441034755E-01
          0                 4           1             4    7     1      -0.4047923730E-05       4    7    1        -0.2306086008E-03      0.5888773101E-03

    ------------------------------------------------
       NWT REQUIRED            4 OUTER ITERATIONS 
       AND A TOTAL OF          6 INNER ITERATIONS.
    ------------------------------------------------

 NO OUTPUT CONTROL FOR STRESS PERIOD   14   TIME STEP   10
 
 SOLVING FOR HEAD 
                                                   Max.-Head-Change                         Max.-Flux-Residual
  Residual-Control   Outer-Iter.   Inner-Iter.     Column Row Layer    Maximum-Head-Change  Column Row Layer    Maximum-Flux-Residual          L2-NORM 
          0                 1           2             4    7     1       0.1525426432E-01       4    7    1         0.8000230776E+00      0.2043802203E+01
          0                 2           2             4    7     1      -0.1483023888E-02       4    7    1        -0.7995910774E-01      0.2042922193E+00
          0                 3           1             4    7     1       0.1009122915E-03       4    7    1         0.5592907662E-02      0.1429196062E-01
          0                 4           1             4    7     1      -0.4010359321E-05       4    7    1        -0.2284624618E-03      0.5839317661E-03

    ------------------------------------------------
       NWT REQUIRED            4 OUTER ITERATIONS 
       AND A TOTAL OF          6 INNER ITERATIONS.
    ------------------------------------------------

 NO OUTPUT CONTROL FOR STRESS PERIOD   14   TIME STEP   11
 
 SOLVING FOR HEAD 
                                                   Max.-Head-Change                         Max.-Flux-Residual
  Residual-Control   Outer-Iter.   Inner-Iter.     Column Row Layer    Maximum-Head-Change  Column Row Layer    Maximum-Flux-Residual          L2-NORM 
          0                 1           2             4    7     1       0.1511300347E-01       4    7    1         0.7925927062E+00      0.2027080101E+01
          0                 2           2             4    7     1      -0.1469290415E-02       4    7    1        -0.7921646758E-01      0.2026223601E+00
          0                 3           1             4    7     1       0.9997779740E-04       4    7    1         0.5540962039E-02      0.1417537418E-01

    ------------------------------------------------
       NWT REQUIRED            3 OUTER ITERATIONS 
       AND A TOTAL OF          5 INNER ITERATIONS.
    ------------------------------------------------

 NO OUTPUT CONTROL FOR STRESS PERIOD   14   TIME STEP   12
 
 SOLVING FOR HEAD 
                                                   Max.-Head-Change                         Max.-Flux-Residual
  Residual-Control   Outer-Iter.   Inner-Iter.     Column Row Layer    Maximum-Head-Change  Column Row Layer    Maximum-Flux-Residual          L2-NORM 
          0                 1           2             4    7     1       0.1497342902E-01       4    7    1         0.7852511756E+00      0.2010579791E+01
          0                 2           2             4    7     1      -0.1455720896E-02       4    7    1        -0.7848270679E-01      0.2009744292E+00
          0                 3           1             4    7     1       0.9905445994E-04       4    7    1         0.5489637515E-02      0.1406014895E-01

    ------------------------------------------------
       NWT REQUIRED            3 OUTER ITERATIONS 
       AND A TOTAL OF          5 INNER ITERATIONS.
    ------------------------------------------------

 NO OUTPUT CONTROL FOR STRESS PERIOD   14   TIME STEP   13
 
 SOLVING FOR HEAD 
                                                   Max.-Head-Change                         Max.-Flux-Residual
  Residual-Control   Outer-Iter.   Inner-Iter.     Column Row Layer    Maximum-Head-Change  Column Row Layer    Maximum-Flux-Residual          L2-NORM 
          0                 1           2             4    7     1       0.1483556320E-01       4    7    1         0.7779997123E+00      0.1994296796E+01
          0                 2           2             4    7     1      -0.1442317491E-02       4    7    1        -0.7775794799E-01      0.1993480965E+00
          0                 3           1             4    7     1       0.9814242564E-04       4    7    1         0.5438942650E-02      0.1394652507E-01

    ------------------------------------------------
       NWT REQUIRED            3 OUTER ITERATIONS 
       AND A TOTAL OF          5 INNER ITERATIONS.
    ------------------------------------------------

 NO OUTPUT CONTROL FOR STRESS PERIOD   14   TIME STEP   14
 
 SOLVING FOR HEAD 
                                                   Max.-Head-Change                         Max.-Flux-Residual
  Residual-Control   Outer-Iter.   Inner-Iter.     Column Row Layer    Maximum-Head-Change  Column Row Layer    Maximum-Flux-Residual          L2-NORM 
          0                 1           2             4    7     1       0.1469938038E-01       4    7    1         0.7708368376E+00      0.1978229196E+01
          0                 2           2             4    7     1      -0.1429077709E-02       4    7    1        -0.7704204334E-01      0.1977431498E+00
          0                 3           1             4    7     1       0.9724152517E-04       4    7    1         0.5388867117E-02      0.1383434311E-01

    ------------------------------------------------
       NWT REQUIRED            3 OUTER ITERATIONS 
       AND A TOTAL OF          5 INNER ITERATIONS.
    ------------------------------------------------

 NO OUTPUT CONTROL FOR STRESS PERIOD   14   TIME STEP   15
 
 SOLVING FOR HEAD 
                                                   Max.-Head-Change                         Max.-Flux-Residual
  Residual-Control   Outer-Iter.   Inner-Iter.     Column Row Layer    Maximum-Head-Change  Column Row Layer    Maximum-Flux-Residual          L2-NORM 
          0                 1           2             4    7     1       0.1456485762E-01       4    7    1         0.7637612241E+00      0.1962372000E+01
          0                 2           2             4    7     1      -0.1415999319E-02       4    7    1        -0.7633486022E-01      0.1961591684E+00
          0                 3           1             4    7     1       0.9635160609E-04       4    7    1         0.5339401615E-02      0.1372365286E-01

    ------------------------------------------------
       NWT REQUIRED            3 OUTER ITERATIONS 
       AND A TOTAL OF          5 INNER ITERATIONS.
    ------------------------------------------------

 NO OUTPUT CONTROL FOR STRESS PERIOD   14   TIME STEP   16
 
 SOLVING FOR HEAD 
                                                   Max.-Head-Change                         Max.-Flux-Residual
  Residual-Control   Outer-Iter.   Inner-Iter.     Column Row Layer    Maximum-Head-Change  Column Row Layer    Maximum-Flux-Residual          L2-NORM 
          0                 1           2             4    7     1       0.1443196810E-01       4    7    1         0.7567716807E+00      0.1946717035E+01
          0                 2           2             4    7     1      -0.1403079716E-02       4    7    1        -0.7563627955E-01      0.1945951662E+00
          0                 3           1             4    7     1       0.9547249257E-04       4    7    1         0.5290537860E-02      0.1361417832E-01

    ------------------------------------------------
       NWT REQUIRED            3 OUTER ITERATIONS 
       AND A TOTAL OF          5 INNER ITERATIONS.
    ------------------------------------------------

 NO OUTPUT CONTROL FOR STRESS PERIOD   14   TIME STEP   17
 
 SOLVING FOR HEAD 
                                                   Max.-Head-Change                         Max.-Flux-Residual
  Residual-Control   Outer-Iter.   Inner-Iter.     Column Row Layer    Maximum-Head-Change  Column Row Layer    Maximum-Flux-Residual          L2-NORM 
          0                 1           2             4    7     1       0.1430069098E-01       4    7    1         0.7498668185E+00      0.1931260794E+01
          0                 2           2             4    7     1      -0.1390316871E-02       4    7    1        -0.7494616250E-01      0.1930510851E+00
          0                 3           1             4    7     1       0.9460404473E-04       4    7    1         0.5242266082E-02      0.1350635109E-01

    ------------------------------------------------
       NWT REQUIRED            3 OUTER ITERATIONS 
       AND A TOTAL OF          5 INNER ITERATIONS.
    ------------------------------------------------

 NO OUTPUT CONTROL FOR STRESS PERIOD   14   TIME STEP   18
 
 SOLVING FOR HEAD 
                                                   Max.-Head-Change                         Max.-Flux-Residual
  Residual-Control   Outer-Iter.   Inner-Iter.     Column Row Layer    Maximum-Head-Change  Column Row Layer    Maximum-Flux-Residual          L2-NORM 
          0                 1           2             4    7     1       0.1417099717E-01       4    7    1         0.7430455559E+00      0.1915992835E+01
          0                 2           2             4    7     1      -0.1377707958E-02       4    7    1        -0.7426440101E-01      0.1915256946E+00
          0                 3           1             4    7     1       0.9374607170E-04       4    7    1         0.5194578771E-02      0.1339972889E-01

    ------------------------------------------------
       NWT REQUIRED            3 OUTER ITERATIONS 
       AND A TOTAL OF          5 INNER ITERATIONS.
    ------------------------------------------------

 NO OUTPUT CONTROL FOR STRESS PERIOD   14   TIME STEP   19
 
 SOLVING FOR HEAD 
                                                   Max.-Head-Change                         Max.-Flux-Residual
  Residual-Control   Outer-Iter.   Inner-Iter.     Column Row Layer    Maximum-Head-Change  Column Row Layer    Maximum-Flux-Residual          L2-NORM 
          0                 1           2             4    7     1       0.1404299874E-01       4    7    1         0.7363137466E+00      0.1900920770E+01
          0                 2           2             4    7     1      -0.1365263870E-02       4    7    1        -0.7359158012E-01      0.1900198146E+00
          0                 3           1             4    7     1       0.9289931378E-04       4    7    1         0.5147516812E-02      0.1329447265E-01

    ------------------------------------------------
       NWT REQUIRED            3 OUTER ITERATIONS 
       AND A TOTAL OF          5 INNER ITERATIONS.
    ------------------------------------------------

 NO OUTPUT CONTROL FOR STRESS PERIOD   14   TIME STEP   20
 
 SOLVING FOR HEAD 
                                                   Max.-Head-Change                         Max.-Flux-Residual
  Residual-Control   Outer-Iter.   Inner-Iter.     Column Row Layer    Maximum-Head-Change  Column Row Layer    Maximum-Flux-Residual          L2-NORM 
          0                 1           2             4    7     1       0.1391640251E-01       4    7    1         0.7296551166E+00      0.1886040127E+01
          0                 2           2             4    7     1      -0.1352956106E-02       4    7    1        -0.7292607323E-01      0.1885329478E+00
          0                 3           1             4    7     1       0.9206183251E-04       4    7    1         0.5100966484E-02      0.1319048326E-01

    ------------------------------------------------
       NWT REQUIRED            3 OUTER ITERATIONS 
       AND A TOTAL OF          5 INNER ITERATIONS.
    ------------------------------------------------

 NO OUTPUT CONTROL FOR STRESS PERIOD   14   TIME STEP   21
 
 SOLVING FOR HEAD 
                                                   Max.-Head-Change                         Max.-Flux-Residual
  Residual-Control   Outer-Iter.   Inner-Iter.     Column Row Layer    Maximum-Head-Change  Column Row Layer    Maximum-Flux-Residual          L2-NORM 
          0                 1           2             4    7     1       0.1379132342E-01       4    7    1         0.7230765496E+00      0.1871336237E+01
          0                 2           2             4    7     1      -0.1340709463E-02       4    7    1        -0.7227769590E-01      0.1870658462E+00
          0                 3           1             4    7     1       0.9114448313E-04       4    7    1         0.5049748657E-02      0.1308635390E-01

    ------------------------------------------------
       NWT REQUIRED            3 OUTER ITERATIONS 
       AND A TOTAL OF          5 INNER ITERATIONS.
    ------------------------------------------------

 NO OUTPUT CONTROL FOR STRESS PERIOD   14   TIME STEP   22
 
 SOLVING FOR HEAD 
                                                   Max.-Head-Change                         Max.-Flux-Residual
  Residual-Control   Outer-Iter.   Inner-Iter.     Column Row Layer    Maximum-Head-Change  Column Row Layer    Maximum-Flux-Residual          L2-NORM 
          0                 1           2             4    7     1       0.1366787249E-01       4    7    1         0.7165840175E+00      0.1856805030E+01
          0                 2           2             4    7     1      -0.1331136660E-02       4    7    1        -0.7176613177E-01      0.1856494021E+00
          0                 3           1             4    7     1       0.9057716794E-04       4    7    1         0.5019832689E-02      0.1298880370E-01

    ------------------------------------------------
       NWT REQUIRED            3 OUTER ITERATIONS 
       AND A TOTAL OF          5 INNER ITERATIONS.
    ------------------------------------------------

 NO OUTPUT CONTROL FOR STRESS PERIOD   14   TIME STEP   23
 
 SOLVING FOR HEAD 
                                                   Max.-Head-Change                         Max.-Flux-Residual
  Residual-Control   Outer-Iter.   Inner-Iter.     Column Row Layer    Maximum-Head-Change  Column Row Layer    Maximum-Flux-Residual          L2-NORM 
          0                 1           2             4    7     1       0.1354103640E-01       4    7    1         0.7100362166E+00      0.1842415395E+01
          0                 2           2             4    7     1      -0.1316463348E-02       4    7    1        -0.7096525228E-01      0.1841736912E+00
          0                 3           1             4    7     1       0.8957871773E-04       4    7    1         0.4963813034E-02      0.1288564777E-01

    ------------------------------------------------
       NWT REQUIRED            3 OUTER ITERATIONS 
       AND A TOTAL OF          5 INNER ITERATIONS.
    ------------------------------------------------

 NO OUTPUT CONTROL FOR STRESS PERIOD   14   TIME STEP   24
 
 SOLVING FOR HEAD 
                                                   Max.-Head-Change                         Max.-Flux-Residual
  Residual-Control   Outer-Iter.   Inner-Iter.     Column Row Layer    Maximum-Head-Change  Column Row Layer    Maximum-Flux-Residual          L2-NORM 
          0                 1           2             4    7     1       0.1341837752E-01       4    7    1         0.7035774459E+00      0.1828199088E+01
          0                 2           2             4    7     1      -0.1304538361E-02       4    7    1        -0.7031971977E-01      0.1827530318E+00
          0                 3           1             4    7     1       0.8876728140E-04       4    7    1         0.4918659794E-02      0.1278622507E-01

    ------------------------------------------------
       NWT REQUIRED            3 OUTER ITERATIONS 
       AND A TOTAL OF          5 INNER ITERATIONS.
    ------------------------------------------------

 NO OUTPUT CONTROL FOR STRESS PERIOD   14   TIME STEP   25
 
 SOLVING FOR HEAD 
                                                   Max.-Head-Change                         Max.-Flux-Residual
  Residual-Control   Outer-Iter.   Inner-Iter.     Column Row Layer    Maximum-Head-Change  Column Row Layer    Maximum-Flux-Residual          L2-NORM 
          0                 1           2             4    7     1       0.1329731184E-01       4    7    1         0.6972030246E+00      0.1814158303E+01
          0                 2           2             4    7     1      -0.1292768267E-02       4    7    1        -0.6968261775E-01      0.1813498409E+00
          0                 3           1             4    7     1       0.8796638509E-04       4    7    1         0.4874096253E-02      0.1268807462E-01

    ------------------------------------------------
       NWT REQUIRED            3 OUTER ITERATIONS 
       AND A TOTAL OF          5 INNER ITERATIONS.
    ------------------------------------------------

 NO OUTPUT CONTROL FOR STRESS PERIOD   14   TIME STEP   26
 
 SOLVING FOR HEAD 
                                                   Max.-Head-Change                         Max.-Flux-Residual
  Residual-Control   Outer-Iter.   Inner-Iter.     Column Row Layer    Maximum-Head-Change  Column Row Layer    Maximum-Flux-Residual          L2-NORM 
          0                 1           2             4    7     1       0.1317780602E-01       4    7    1         0.6909112078E+00      0.1800276764E+01
          0                 2           2             4    7     1      -0.1281149825E-02       4    7    1        -0.6905377187E-01      0.1799623948E+00
          0                 3           1             4    7     1       0.8717580784E-04       4    7    1         0.4830110194E-02      0.1259082236E-01

    ------------------------------------------------
       NWT REQUIRED            3 OUTER ITERATIONS 
       AND A TOTAL OF          5 INNER ITERATIONS.
    ------------------------------------------------

 NO OUTPUT CONTROL FOR STRESS PERIOD   14   TIME STEP   27
 
 SOLVING FOR HEAD 
                                                   Max.-Head-Change                         Max.-Flux-Residual
  Residual-Control   Outer-Iter.   Inner-Iter.     Column Row Layer    Maximum-Head-Change  Column Row Layer    Maximum-Flux-Residual          L2-NORM 
          0                 1           2             4    7     1       0.1305982923E-01       4    7    1         0.6847002665E+00      0.1786559201E+01
          0                 2           2             4    7     1      -0.1269680038E-02       4    7    1        -0.6843300932E-01      0.1785917788E+00
          0                 3           1             4    7     1       0.8639534590E-04       4    7    1         0.4786689559E-02      0.1249524852E-01

    ------------------------------------------------
       NWT REQUIRED            3 OUTER ITERATIONS 
       AND A TOTAL OF          5 INNER ITERATIONS.
    ------------------------------------------------

 NO OUTPUT CONTROL FOR STRESS PERIOD   14   TIME STEP   28
 
 SOLVING FOR HEAD 
                                                   Max.-Head-Change                         Max.-Flux-Residual
  Residual-Control   Outer-Iter.   Inner-Iter.     Column Row Layer    Maximum-Head-Change  Column Row Layer    Maximum-Flux-Residual          L2-NORM 
          0                 1           2             4    7     1       0.1294348557E-01       4    7    1         0.6785759659E+00      0.1773006477E+01
          0                 2           2             4    7     1      -0.1258369025E-02       4    7    1        -0.6782090632E-01      0.1772373064E+00
          0                 3           1             4    7     1       0.8562568797E-04       4    7    1         0.4743874632E-02      0.1240049572E-01

    ------------------------------------------------
       NWT REQUIRED            3 OUTER ITERATIONS 
       AND A TOTAL OF          5 INNER ITERATIONS.
    ------------------------------------------------

 NO OUTPUT CONTROL FOR STRESS PERIOD   14   TIME STEP   29
 
 SOLVING FOR HEAD 
                                                   Max.-Head-Change                         Max.-Flux-Residual
  Residual-Control   Outer-Iter.   Inner-Iter.     Column Row Layer    Maximum-Head-Change  Column Row Layer    Maximum-Flux-Residual          L2-NORM 
          0                 1           2             4    7     1       0.1282860625E-01       4    7    1         0.6725289767E+00      0.1759613575E+01
          0                 2           2             4    7     1      -0.1247200379E-02       4    7    1        -0.6721653038E-01      0.1758987721E+00
          0                 3           1             4    7     1       0.8486571660E-04       4    7    1         0.4701600178E-02      0.1230684511E-01

    ------------------------------------------------
       NWT REQUIRED            3 OUTER ITERATIONS 
       AND A TOTAL OF          5 INNER ITERATIONS.
    ------------------------------------------------

 NO OUTPUT CONTROL FOR STRESS PERIOD   14   TIME STEP   30



 STREAM LISTING     PERIOD     14   STEP       30

 LAYER ROW COL. STREAM  RCH.  FLOW INTO     FLOW TO   FLOW OUT OF   OVRLND.     DIRECT     STREAM       STREAM     STREAM     STREAM   STREAMBED  STREAMBED
                SEG.NO.  NO.  STRM. RCH.    AQUIFER    STRM. RCH.    RUNOFF     PRECIP       ET          HEAD       DEPTH      WIDTH   CONDCTNC.   GRADIENT

   1    1    1     1     1    1.9000E+01  2.1427E-01   1.8786E+01  0.000E+00  0.000E+00  0.000E+00  1.09413E+03  1.082E+00  1.166E+01  5.249E-02  1.361E+00
   1    2    2     1     2    1.8786E+01  3.3055E-01   1.8455E+01  0.000E+00  0.000E+00  0.000E+00  1.08914E+03  1.077E+00  1.158E+01  8.107E-02  1.359E+00
   1    3    3     1     3    1.8455E+01  2.8065E-01   1.8175E+01  0.000E+00  0.000E+00  0.000E+00  1.08349E+03  1.072E+00  1.149E+01  6.892E-02  1.357E+00
   1    3    4     1     4    1.8175E+01  2.5740E-01   1.7917E+01  0.000E+00  0.000E+00  0.000E+00  1.07848E+03  1.068E+00  1.140E+01  6.328E-02  1.356E+00
   1    4    5     2     1    1.5917E+01  3.0543E-01   1.5612E+01  0.000E+00  0.000E+00  0.000E+00  1.07285E+03  9.157E-01  1.200E+01  7.800E-02  1.305E+00
   1    5    6     2     2    1.5612E+01  2.3438E-01   1.5378E+01  0.000E+00  0.000E+00  0.000E+00  1.06742E+03  9.063E-01  1.200E+01  6.000E-02  1.302E+00
   1    6    6     2     3    1.5378E+01  2.3388E-01   1.5144E+01  0.000E+00  0.000E+00  0.000E+00  1.06269E+03  8.980E-01  1.200E+01  6.000E-02  1.299E+00
   1    7    6     2     4    1.5144E+01  2.3339E-01   1.4910E+01  0.000E+00  0.000E+00  0.000E+00  1.05797E+03  8.898E-01  1.200E+01  6.000E-02  1.297E+00
   1    8    6     2     5    1.4910E+01  2.3289E-01   1.4677E+01  0.000E+00  0.000E+00  0.000E+00  1.05324E+03  8.814E-01  1.200E+01  6.000E-02  1.294E+00
   1    3    5     3     1    2.0000E+00  2.8252E-01   1.7175E+00  0.000E+00  0.000E+00  0.000E+00  1.07555E+03  1.909E+00  9.636E+00  7.227E-02  1.955E+00
   1    3    6     3     2    1.7175E+00  2.4905E-01   1.4684E+00  0.000E+00  0.000E+00  0.000E+00  1.07264E+03  1.727E+00  8.909E+00  6.682E-02  1.864E+00
   1    3    7     3     3    1.4684E+00  1.9718E-01   1.2712E+00  0.000E+00  0.000E+00  0.000E+00  1.06987E+03  1.555E+00  8.218E+00  5.547E-02  1.777E+00
   1    4    8     3     4    1.2712E+00  2.2567E-01   1.0456E+00  0.000E+00  0.000E+00  0.000E+00  1.06682E+03  1.364E+00  7.455E+00  6.709E-02  1.682E+00
   1    5    8     3     5    1.0456E+00  1.5790E-01   8.8768E-01  0.000E+00  0.000E+00  0.000E+00  1.06362E+03  1.164E+00  6.655E+00  4.991E-02  1.582E+00
   1    6    8     3     6    8.8768E-01  5.5980E-02   8.3170E-01  0.000E+00  0.000E+00  0.000E+00  1.06158E+03  1.036E+00  6.145E+00  1.844E-02  1.518E+00
   1    5   10     4     1    1.0000E+01  9.0919E-02   9.9091E+00  0.000E+00  0.000E+00  0.000E+00  1.07836E+03  6.368E-01  1.000E+01  2.500E-02  1.212E+00
   1    5    9     4     2    9.9091E+00  1.8158E-01   9.7275E+00  0.000E+00  0.000E+00  0.000E+00  1.07154E+03  6.315E-01  1.000E+01  5.000E-02  1.211E+00
   1    6    8     4     3    9.7275E+00  1.2689E-01   9.6006E+00  0.000E+00  0.000E+00  0.000E+00  1.06381E+03  6.256E-01  1.000E+01  3.500E-02  1.209E+00
   1    6    8     5     1    1.0432E+01  2.2686E-01   1.0205E+01  0.000E+00  0.000E+00  0.000E+00  1.05868E+03  6.790E-01  1.542E+01  6.166E-02  1.226E+00
   1    7    7     5     2    1.0205E+01  2.7894E-01   9.9265E+00  0.000E+00  0.000E+00  0.000E+00  1.05417E+03  6.732E-01  1.519E+01  7.594E-02  1.224E+00
   1    8    7     5     3    9.9265E+00  1.9221E-01   9.7343E+00  0.000E+00  0.000E+00  0.000E+00  1.04992E+03  6.676E-01  1.497E+01  5.241E-02  1.223E+00
   1    8    6     5     4    9.7343E+00  1.3577E-01   9.5985E+00  0.000E+00  0.000E+00  0.000E+00  1.04691E+03  6.637E-01  1.482E+01  3.706E-02  1.221E+00
   1    9    6     6     1    2.4276E+01  2.5176E-01   2.4024E+01  0.000E+00  0.000E+00  0.000E+00  1.04392E+03  1.196E+00  1.200E+01  6.000E-02  1.399E+00
   1   10    7     6     2    2.4024E+01  2.5131E-01   2.3773E+01  0.000E+00  0.000E+00  0.000E+00  1.03937E+03  1.188E+00  1.200E+01  6.000E-02  1.396E+00
   1   11    7     6     3    2.3773E+01  2.5086E-01   2.3522E+01  0.000E+00  0.000E+00  0.000E+00  1.03482E+03  1.181E+00  1.200E+01  6.000E-02  1.394E+00
   1   12    7     6     4    2.3522E+01  2.5041E-01   2.3272E+01  0.000E+00  0.000E+00  0.000E+00  1.03026E+03  1.173E+00  1.200E+01  6.000E-02  1.391E+00
   1   13    7     6     5    2.3272E+01 -1.2570E-02   2.3284E+01  0.000E+00  0.000E+00  0.000E+00  1.02708E+03  1.170E+00  1.200E+01  2.400E-01 -1.746E-02
   1   14    9     7     1    1.5000E+02  1.3295E+00   1.4867E+02  0.000E+00  0.000E+00  0.000E+00  1.03987E+03  2.288E+00  5.529E+01  5.593E-01  7.924E-01
   1   13    8     7     2    1.4867E+02  1.8075E+00   1.4686E+02  0.000E+00  0.000E+00  0.000E+00  1.03478E+03  2.279E+00  5.526E+01  6.148E-01  9.800E-01
   1   13    7     7     3    1.4686E+02  1.4290E+00   1.4543E+02  0.000E+00  0.000E+00  0.000E+00  1.02969E+03  2.271E+00  5.522E+01  5.585E-01  8.529E-01
   1   13    6     8     1    1.6872E+02  8.8086E-01   1.6784E+02  0.000E+00  0.000E+00  0.000E+00  1.02482E+03  2.941E+00  4.264E+01  4.346E-01  6.757E-01
   1   13    5     8     2    1.6784E+02  1.4831E-01   1.6769E+02  0.000E+00  0.000E+00  0.000E+00  1.01856E+03  2.938E+00  4.259E+01  4.341E-01  1.139E-01
   1   13    4     8     3    1.6769E+02 -2.5059E+00   1.7019E+02  0.000E+00  0.000E+00  0.000E+00  1.01232E+03  2.945E+00  4.271E+01  4.352E+00 -1.919E-01
   1   13    3     8     4    1.7019E+02 -3.6996E+00   1.7389E+02  0.000E+00  0.000E+00  0.000E+00  1.00609E+03  2.965E+00  4.300E+01  4.382E+00 -2.814E-01
   1   13    2     8     5    1.7389E+02 -2.6037E+00   1.7650E+02  0.000E+00  0.000E+00  0.000E+00  9.99861E+02  2.986E+00  4.329E+01  4.412E+00 -1.967E-01
   1   13    1     8     6    1.7650E+02 -2.0002E+00   1.7850E+02  0.000E+00  0.000E+00  0.000E+00  9.94875E+02  3.000E+00  4.351E+01  2.660E+00 -2.507E-01





UNSATURATED ZONE PACKAGE VOLUMETRIC BUDGET FOR  TIME STEP    30 STRESS PERIOD   14
  ------------------------------------------------------------------------------



     CUMULATIVE VOLUMES      L**3       RATES FOR THIS TIME STEP      L**3/T
     ------------------                 ------------------------

           IN:                                      IN:
           ---                                      ---
        INFILTRATION =   505327208.1176          INFILTRATION =           0.8475

          OUT:                                     OUT:
          ----                                     ----
              UZF ET =   432095249.9164                UZF ET =           0.7500
        UZF RECHARGE =    72392158.1778          UZF RECHARGE =           0.0002

            IN - OUT =      839800.0234              IN - OUT =       9.7337E-02

          STORAGE:                                 STORAGE:
          --------                                 --------
      STORAGE CHANGE =      839806.1749        STORAGE CHANGE =       9.7337E-02

 PERCENT DISCREPANCY IS DIFFERENCE BETWEEN IN-OUT MINUS CHANGE IN STORAGE
 DIVIDED BY THE AVERAGE OF IN AND OUT TIMES 100

 PERCENT DISCREPANCY =           0.00     PERCENT DISCREPANCY =           0.00






1
  VOLUMETRIC BUDGET FOR AGRICULTURAL FIELDS AT  END OF TIME STEP   30, STRESS PERIOD  14
  ------------------------------------------------------------------------------

     CUMULATIVE VOLUMES      L**3       RATES FOR THIS TIME STEP      L**3/T
     ------------------                 ------------------------

           IN:                                      IN:
           ---                                      ---
               AG WELLS  =   476277312.0000                 AG WELLS  =           0.0000
      DIVERSION SEGMENTS =           0.0000        DIVERSION SEGMENTS =           0.0000
           GW IRRIGATION =           0.0000             GW IRRIGATION =           0.0000
           SW IRRIGATION =           0.0000             SW IRRIGATION =           0.0000
        SYSTEM LOSSES GW =           0.0000          SYSTEM LOSSES GW =           0.0000
        SYSTEM LOSSES SW =           0.0000          SYSTEM LOSSES SW =           0.0000

                TOTAL IN =   476277312.0000                  TOTAL IN =           0.0000

          OUT:                                     OUT:
          ----                                     ----
               AG WELLS  =           0.0000                 AG WELLS  =           0.0000
      DIVERSION SEGMENTS =           0.0000        DIVERSION SEGMENTS =           0.0000
           GW IRRIGATION =   476277312.0000             GW IRRIGATION =           0.0000
           SW IRRIGATION =           0.0000             SW IRRIGATION =           0.0000
        SYSTEM LOSSES GW =           0.0000          SYSTEM LOSSES GW =           0.0000
        SYSTEM LOSSES SW =           0.0000          SYSTEM LOSSES SW =           0.0000

               TOTAL OUT =   476277312.0000                 TOTAL OUT =           0.0000

                IN - OUT =           0.0000                  IN - OUT =           0.0000

     PERCENT DISCREPANCY =           0.00         PERCENT DISCREPANCY =           0.00



1
  VOLUMETRIC BUDGET FOR ENTIRE MODEL AT END OF TIME STEP   30, STRESS PERIOD  14
  ------------------------------------------------------------------------------

     CUMULATIVE VOLUMES      L**3       RATES FOR THIS TIME STEP      L**3/T
     ------------------                 ------------------------

           IN:                                      IN:
           ---                                      ---
             STORAGE     =   612744320.0000               STORAGE     =           5.6639
       CONSTANT HEAD     =           0.0000         CONSTANT HEAD     =           0.0000
     HEAD DEP BOUNDS     =     9783329.0000       HEAD DEP BOUNDS     =           0.2853
      STREAM LEAKAGE     =   424237600.0000        STREAM LEAKAGE     =          11.3238
        UZF RECHARGE     =    72392168.0000          UZF RECHARGE     =       1.6325E-04
               GW ET     =           0.0000                 GW ET     =           0.0000
     SURFACE LEAKAGE     =           0.0000       SURFACE LEAKAGE     =           0.0000
           AG WELLS      =           0.0000             AG WELLS      =           0.0000

                TOTAL IN =  1119157504.0000                  TOTAL IN =          17.2732

          OUT:                                     OUT:
          ----                                     ----
             STORAGE     =   261775888.0000               STORAGE     =           6.1615
       CONSTANT HEAD     =           0.0000         CONSTANT HEAD     =           0.0000
     HEAD DEP BOUNDS     =    10088054.0000       HEAD DEP BOUNDS     =           0.2898
      STREAM LEAKAGE     =   357269920.0000        STREAM LEAKAGE     =          10.8220
        UZF RECHARGE     =           0.0000          UZF RECHARGE     =           0.0000
               GW ET     =    13750565.0000                 GW ET     =           0.0000
     SURFACE LEAKAGE     =           0.0000       SURFACE LEAKAGE     =           0.0000
           AG WELLS      =   476277312.0000             AG WELLS      =           0.0000

               TOTAL OUT =  1119161728.0000                 TOTAL OUT =          17.2733

                IN - OUT =       -4224.0000                  IN - OUT =      -1.3542E-04

     PERCENT DISCREPANCY =          -0.00         PERCENT DISCREPANCY =          -0.00






         TIME SUMMARY AT END OF TIME STEP   30 IN STRESS PERIOD   14
                    SECONDS     MINUTES      HOURS       DAYS        YEARS
                    -----------------------------------------------------------
   TIME STEP LENGTH  87667.      1461.1      24.352      1.0147     2.77799E-03
 STRESS PERIOD TIME 2.63000E+06  43833.      730.56      30.440     8.33397E-02
         TOTAL TIME 3.42763E+07 5.71272E+05  9521.2      396.72      1.0862    
1
1
                            STRESS PERIOD NO.   15, LENGTH =   2630000.    
                            -----------------------------------------------

                              NUMBER OF TIME STEPS =    30

                               MULTIPLIER FOR DELT =     1.000

                            INITIAL TIME STEP SIZE =   87666.66    

 REUSING NON-PARAMETER GHB CELLS FROM LAST STRESS PERIOD

      2 GHB CELLS

 REUSING STREAM SEGMENT DATA FROM LAST STRESS PERIOD



            AREAL INFILTRATION RATE
 READING ON UNIT   19 WITH FORMAT: (FREE)              

            1           2           3           4           5           6           7           8           9          10
 ........................................................................................................................
   1   1.0000E-10  2.0000E-10   0.000       0.000       0.000       0.000       0.000       0.000       0.000       0.000    
   2   2.0000E-10  1.0000E-10  2.0000E-10   0.000       0.000      8.0000E-10  8.0000E-10  5.0000E-10   0.000       0.000    
   3    0.000      5.0000E-10  1.0000E-10  1.0000E-10  8.0000E-10  8.0000E-10  5.0000E-10  5.0000E-10   0.000       0.000    
   4   8.0000E-10  5.0000E-10  1.0000E-10  1.0000E-10  1.0000E-10  1.0000E-10  1.0000E-10  1.0000E-10  2.0000E-10   0.000    
   5   8.0000E-10  5.0000E-10  1.0000E-10  1.0000E-10  1.0000E-10  1.0000E-10  1.0000E-10  1.0000E-10  1.0000E-10  1.0000E-10
   6   8.0000E-10  5.0000E-10  5.0000E-10  2.0000E-10  2.0000E-10  1.0000E-10  1.0000E-10  1.0000E-10  1.0000E-10  5.0000E-10
   7   8.0000E-10  5.0000E-10  5.0000E-10  2.0000E-10  2.0000E-10  1.0000E-10  1.0000E-10  2.0000E-10  2.0000E-10   0.000    
   8    0.000      5.0000E-10  5.0000E-10  2.0000E-10  2.0000E-10  1.0000E-10  1.0000E-10  2.0000E-10  5.0000E-10   0.000    
   9    0.000      5.0000E-10  5.0000E-10  2.0000E-10  2.0000E-10  1.0000E-10  1.0000E-10  2.0000E-10  5.0000E-10   0.000    
  10    0.000      5.0000E-10  5.0000E-10  2.0000E-10  2.0000E-10  1.0000E-10  1.0000E-10  2.0000E-10  5.0000E-10  8.0000E-10
  11    0.000      1.0000E-10  1.0000E-10  1.0000E-10  1.0000E-10  1.0000E-10  1.0000E-10  2.0000E-10  5.0000E-10   0.000    
  12   1.0000E-10  1.0000E-10  1.0000E-10  1.0000E-10  1.0000E-10  1.0000E-10  1.0000E-10  1.0000E-10  2.0000E-10   0.000    
  13   1.0000E-10  1.0000E-10  2.0000E-10  2.0000E-10  2.0000E-10  2.0000E-10  2.0000E-10  1.0000E-10  1.0000E-10   0.000    
  14    0.000      2.0000E-10  5.0000E-10  5.0000E-10  5.0000E-10  5.0000E-10  5.0000E-10  2.0000E-10  1.0000E-10   0.000    
  15    0.000       0.000      8.0000E-10  8.0000E-10  8.0000E-10  8.0000E-10   0.000       0.000       0.000       0.000    

                  ET RATE =  5.000000E-10

 USING ET EXTINCTION DEPTH FROM PREVIOUS STRESS PERIOD. CURRENT PERIOD IS:      15

 USING EXTINCTION WATER CONTENT FROM PREVIOUS STRESS PERIOD. CURRENT PERIOD IS:      15

 USING AIR ENTRY PRESSURE FROM PREVIOUS STRESS PERIOD. CURRENT PERIOD IS:      15

 USING ROOT PRESSURE HEAD FROM PREVIOUS STRESS PERIOD. CURRENT PERIOD IS:      15

 USING ROOT ACTIVITY FROM PREVIOUS STRESS PERIOD. CURRENT PERIOD IS:      15

 PROCESSING AG STRESS PERIOD DATA

 READING AG STRESS PERIOD DATA

 READING IRRIGATION WELL

 END PROCESSING AG STRESS PERIOD DATA OPTIONS
 
 SOLVING FOR HEAD 
                                                   Max.-Head-Change                         Max.-Flux-Residual
  Residual-Control   Outer-Iter.   Inner-Iter.     Column Row Layer    Maximum-Head-Change  Column Row Layer    Maximum-Flux-Residual          L2-NORM 
          0                 1           2             4    7     1       0.1271516069E-01       4    7    1         0.6665579113E+00      0.1746373450E+01
          0                 2           2             4    7     1      -0.1236171124E-02       4    7    1        -0.6661974286E-01      0.1745755913E+00
          0                 3           1             4    7     1       0.8411523146E-04       4    7    1         0.4659856565E-02      0.1221434177E-01

    ------------------------------------------------
       NWT REQUIRED            3 OUTER ITERATIONS 
       AND A TOTAL OF          5 INNER ITERATIONS.
    ------------------------------------------------

 NO OUTPUT CONTROL FOR STRESS PERIOD   15   TIME STEP    1
 
 SOLVING FOR HEAD 
                                                   Max.-Head-Change                         Max.-Flux-Residual
  Residual-Control   Outer-Iter.   Inner-Iter.     Column Row Layer    Maximum-Head-Change  Column Row Layer    Maximum-Flux-Residual          L2-NORM 
          0                 1           2             4    7     1       0.1260312851E-01       4    7    1         0.6606611829E+00      0.1730560061E+01
          0                 2           2             4    7     1      -0.1225279280E-02       4    7    1        -0.6603038510E-01      0.1729996802E+00
          0                 3           1             4    7     1       0.8337409550E-04       4    7    1         0.4618632609E-02      0.1210449437E-01

    ------------------------------------------------
       NWT REQUIRED            3 OUTER ITERATIONS 
       AND A TOTAL OF          5 INNER ITERATIONS.
    ------------------------------------------------

 NO OUTPUT CONTROL FOR STRESS PERIOD   15   TIME STEP    2
 
 SOLVING FOR HEAD 
                                                   Max.-Head-Change                         Max.-Flux-Residual
  Residual-Control   Outer-Iter.   Inner-Iter.     Column Row Layer    Maximum-Head-Change  Column Row Layer    Maximum-Flux-Residual          L2-NORM 
          0                 1           2             4    7     1       0.1249262910E-01       4    7    1         0.6548451004E+00      0.1716585725E+01
          0                 2           2             4    7     1      -0.1214536452E-02       4    7    1        -0.6544908766E-01      0.1715669941E+00
          0                 3           1             4    7     1       0.8264309909E-04       4    7    1         0.4577972426E-02      0.1200423929E-01

    ------------------------------------------------
       NWT REQUIRED            3 OUTER ITERATIONS 
       AND A TOTAL OF          5 INNER ITERATIONS.
    ------------------------------------------------

 NO OUTPUT CONTROL FOR STRESS PERIOD   15   TIME STEP    3
 
 SOLVING FOR HEAD 
                                                   Max.-Head-Change                         Max.-Flux-Residual
  Residual-Control   Outer-Iter.   Inner-Iter.     Column Row Layer    Maximum-Head-Change  Column Row Layer    Maximum-Flux-Residual          L2-NORM 
          0                 1           2             4    7     1       0.1238349284E-01       4    7    1         0.6491011250E+00      0.1703790700E+01
          0                 2           2             4    7     1      -0.1203926152E-02       4    7    1        -0.6487499716E-01      0.1703237383E+00
          0                 3           1             4    7     1       0.8192112089E-04       4    7    1         0.4537816369E-02      0.1191725604E-01

    ------------------------------------------------
       NWT REQUIRED            3 OUTER ITERATIONS 
       AND A TOTAL OF          5 INNER ITERATIONS.
    ------------------------------------------------

 NO OUTPUT CONTROL FOR STRESS PERIOD   15   TIME STEP    4
 
 SOLVING FOR HEAD 
                                                   Max.-Head-Change                         Max.-Flux-Residual
  Residual-Control   Outer-Iter.   Inner-Iter.     Column Row Layer    Maximum-Head-Change  Column Row Layer    Maximum-Flux-Residual          L2-NORM 
          0                 1           2             4    7     1       0.1227583287E-01       4    7    1         0.6434351909E+00      0.1691131980E+01
          0                 2           2             4    7     1      -0.1193459379E-02       4    7    1        -0.6430870668E-01      0.1690585137E+00
          0                 3           1             4    7     1       0.8120890888E-04       4    7    1         0.4498205912E-02      0.1182874645E-01

    ------------------------------------------------
       NWT REQUIRED            3 OUTER ITERATIONS 
       AND A TOTAL OF          5 INNER ITERATIONS.
    ------------------------------------------------

 NO OUTPUT CONTROL FOR STRESS PERIOD   15   TIME STEP    5
 
 SOLVING FOR HEAD 
                                                   Max.-Head-Change                         Max.-Flux-Residual
  Residual-Control   Outer-Iter.   Inner-Iter.     Column Row Layer    Maximum-Head-Change  Column Row Layer    Maximum-Flux-Residual          L2-NORM 
          0                 1           2             4    7     1       0.1216947708E-01       4    7    1         0.6378384357E+00      0.1678621806E+01
          0                 2           2             4    7     1      -0.1183119400E-02       4    7    1        -0.6374933048E-01      0.1678080695E+00
          0                 3           1             4    7     1       0.8050532469E-04       4    7    1         0.4459079079E-02      0.1174129737E-01

    ------------------------------------------------
       NWT REQUIRED            3 OUTER ITERATIONS 
       AND A TOTAL OF          5 INNER ITERATIONS.
    ------------------------------------------------

 NO OUTPUT CONTROL FOR STRESS PERIOD   15   TIME STEP    6
 
 SOLVING FOR HEAD 
                                                   Max.-Head-Change                         Max.-Flux-Residual
  Residual-Control   Outer-Iter.   Inner-Iter.     Column Row Layer    Maximum-Head-Change  Column Row Layer    Maximum-Flux-Residual          L2-NORM 
          0                 1           2             4    7     1       0.1206440001E-01       4    7    1         0.6323092996E+00      0.1666268798E+01
          0                 2           2             4    7     1      -0.1172903741E-02       4    7    1        -0.6319671263E-01      0.1665733016E+00
          0                 3           1             4    7     1       0.7981020014E-04       4    7    1         0.4420424988E-02      0.1165491702E-01

    ------------------------------------------------
       NWT REQUIRED            3 OUTER ITERATIONS 
       AND A TOTAL OF          5 INNER ITERATIONS.
    ------------------------------------------------

 NO OUTPUT CONTROL FOR STRESS PERIOD   15   TIME STEP    7
 
 SOLVING FOR HEAD 
                                                   Max.-Head-Change                         Max.-Flux-Residual
  Residual-Control   Outer-Iter.   Inner-Iter.     Column Row Layer    Maximum-Head-Change  Column Row Layer    Maximum-Flux-Residual          L2-NORM 
          0                 1           2             4    7     1       0.1196071517E-01       4    7    1         0.6268538276E+00      0.1654071605E+01
          0                 2           2             4    7     1      -0.1162823436E-02       4    7    1        -0.6265145733E-01      0.1653540832E+00
          0                 3           1             4    7     1       0.7912428550E-04       4    7    1         0.4382285893E-02      0.1156961546E-01

    ------------------------------------------------
       NWT REQUIRED            3 OUTER ITERATIONS 
       AND A TOTAL OF          5 INNER ITERATIONS.
    ------------------------------------------------

 NO OUTPUT CONTROL FOR STRESS PERIOD   15   TIME STEP    8
 
 SOLVING FOR HEAD 
                                                   Max.-Head-Change                         Max.-Flux-Residual
  Residual-Control   Outer-Iter.   Inner-Iter.     Column Row Layer    Maximum-Head-Change  Column Row Layer    Maximum-Flux-Residual          L2-NORM 
          0                 1           2             4    7     1       0.1185825953E-01       4    7    1         0.6214631753E+00      0.1642017612E+01
          0                 2           2             4    7     1      -0.1152862634E-02       4    7    1        -0.6211268057E-01      0.1641491379E+00
          0                 3           1             4    7     1       0.7844650283E-04       4    7    1         0.4344599944E-02      0.1148531029E-01

    ------------------------------------------------
       NWT REQUIRED            3 OUTER ITERATIONS 
       AND A TOTAL OF          5 INNER ITERATIONS.
    ------------------------------------------------

 NO OUTPUT CONTROL FOR STRESS PERIOD   15   TIME STEP    9
 
 SOLVING FOR HEAD 
                                                   Max.-Head-Change                         Max.-Flux-Residual
  Residual-Control   Outer-Iter.   Inner-Iter.     Column Row Layer    Maximum-Head-Change  Column Row Layer    Maximum-Flux-Residual          L2-NORM 
          0                 1           2             4    7     1       0.1175714649E-01       4    7    1         0.6161436200E+00      0.1630102365E+01
          0                 2           2             4    7     1      -0.1143032362E-02       4    7    1        -0.6158100977E-01      0.1629580747E+00
          0                 3           1             4    7     1       0.7777760133E-04       4    7    1         0.4307411035E-02      0.1140198551E-01

    ------------------------------------------------
       NWT REQUIRED            3 OUTER ITERATIONS 
       AND A TOTAL OF          5 INNER ITERATIONS.
    ------------------------------------------------

 NO OUTPUT CONTROL FOR STRESS PERIOD   15   TIME STEP   10
 
 SOLVING FOR HEAD 
                                                   Max.-Head-Change                         Max.-Flux-Residual
  Residual-Control   Outer-Iter.   Inner-Iter.     Column Row Layer    Maximum-Head-Change  Column Row Layer    Maximum-Flux-Residual          L2-NORM 
          0                 1           2             4    7     1       0.1165721129E-01       4    7    1         0.6108863105E+00      0.1618325455E+01
          0                 2           2             4    7     1      -0.1133316601E-02       4    7    1        -0.6105556031E-01      0.1617808019E+00
          0                 3           1             4    7     1       0.7711649230E-04       4    7    1         0.4270657296E-02      0.1131961504E-01

    ------------------------------------------------
       NWT REQUIRED            3 OUTER ITERATIONS 
       AND A TOTAL OF          5 INNER ITERATIONS.
    ------------------------------------------------

 NO OUTPUT CONTROL FOR STRESS PERIOD   15   TIME STEP   11
 
 SOLVING FOR HEAD 
                                                   Max.-Head-Change                         Max.-Flux-Residual
  Residual-Control   Outer-Iter.   Inner-Iter.     Column Row Layer    Maximum-Head-Change  Column Row Layer    Maximum-Flux-Residual          L2-NORM 
          0                 1           2             4    7     1       0.1155857005E-01       4    7    1         0.6056974355E+00      0.1606694061E+01
          0                 2           2             4    7     1      -0.1123726641E-02       4    7    1        -0.6053695067E-01      0.1606180874E+00
          0                 3           1             4    7     1       0.7646394350E-04       4    7    1         0.4234382003E-02      0.1123827668E-01

    ------------------------------------------------
       NWT REQUIRED            3 OUTER ITERATIONS 
       AND A TOTAL OF          5 INNER ITERATIONS.
    ------------------------------------------------

 NO OUTPUT CONTROL FOR STRESS PERIOD   15   TIME STEP   12
 
 SOLVING FOR HEAD 
                                                   Max.-Head-Change                         Max.-Flux-Residual
  Residual-Control   Outer-Iter.   Inner-Iter.     Column Row Layer    Maximum-Head-Change  Column Row Layer    Maximum-Flux-Residual          L2-NORM 
          0                 1           2             4    7     1       0.1146106238E-01       4    7    1         0.6005682851E+00      0.1595189694E+01
          0                 2           2             4    7     1      -0.1114246887E-02       4    7    1        -0.6002431035E-01      0.1594680341E+00
          0                 3           1             4    7     1       0.7581889322E-04       4    7    1         0.4198524235E-02      0.1115780402E-01

    ------------------------------------------------
       NWT REQUIRED            3 OUTER ITERATIONS 
       AND A TOTAL OF          5 INNER ITERATIONS.
    ------------------------------------------------

 NO OUTPUT CONTROL FOR STRESS PERIOD   15   TIME STEP   13
 
 SOLVING FOR HEAD 
                                                   Max.-Head-Change                         Max.-Flux-Residual
  Residual-Control   Outer-Iter.   Inner-Iter.     Column Row Layer    Maximum-Head-Change  Column Row Layer    Maximum-Flux-Residual          L2-NORM 
          0                 1           2             4    7     1       0.1136480154E-01       4    7    1         0.5955052732E+00      0.1583818807E+01
          0                 2           2             4    7     1      -0.1104888353E-02       4    7    1        -0.5951828040E-01      0.1583311162E+00
          0                 3           1             4    7     1       0.7518209183E-04       4    7    1         0.4163128847E-02      0.1107825305E-01

    ------------------------------------------------
       NWT REQUIRED            3 OUTER ITERATIONS 
       AND A TOTAL OF          5 INNER ITERATIONS.
    ------------------------------------------------

 NO OUTPUT CONTROL FOR STRESS PERIOD   15   TIME STEP   14
 
 SOLVING FOR HEAD 
                                                   Max.-Head-Change                         Max.-Flux-Residual
  Residual-Control   Outer-Iter.   Inner-Iter.     Column Row Layer    Maximum-Head-Change  Column Row Layer    Maximum-Flux-Residual          L2-NORM 
          0                 1           2             4    7     1       0.1126962807E-01       4    7    1         0.5904995417E+00      0.1572570370E+01
          0                 2           2             4    7     1      -0.1095635532E-02       4    7    1        -0.5901797545E-01      0.1572068829E+00
          0                 3           1             4    7     1       0.7455248318E-04       4    7    1         0.4128133892E-02      0.1099960686E-01

    ------------------------------------------------
       NWT REQUIRED            3 OUTER ITERATIONS 
       AND A TOTAL OF          5 INNER ITERATIONS.
    ------------------------------------------------

 NO OUTPUT CONTROL FOR STRESS PERIOD   15   TIME STEP   15
 
 SOLVING FOR HEAD 
                                                   Max.-Head-Change                         Max.-Flux-Residual
  Residual-Control   Outer-Iter.   Inner-Iter.     Column Row Layer    Maximum-Head-Change  Column Row Layer    Maximum-Flux-Residual          L2-NORM 
          0                 1           2             4    7     1       0.1117565886E-01       4    7    1         0.5855575546E+00      0.1561446275E+01
          0                 2           2             4    7     1      -0.1086499792E-02       4    7    1        -0.5852404159E-01      0.1560948136E+00
          0                 3           1             4    7     1       0.7393084189E-04       4    7    1         0.4093584595E-02      0.1092178579E-01

    ------------------------------------------------
       NWT REQUIRED            3 OUTER ITERATIONS 
       AND A TOTAL OF          5 INNER ITERATIONS.
    ------------------------------------------------

 NO OUTPUT CONTROL FOR STRESS PERIOD   15   TIME STEP   16
 
 SOLVING FOR HEAD 
                                                   Max.-Head-Change                         Max.-Flux-Residual
  Residual-Control   Outer-Iter.   Inner-Iter.     Column Row Layer    Maximum-Head-Change  Column Row Layer    Maximum-Flux-Residual          L2-NORM 
          0                 1           2             4    7     1       0.1108273835E-01       4    7    1         0.5806706399E+00      0.1550449796E+01
          0                 2           2             4    7     1      -0.1077466008E-02       4    7    1        -0.5803561206E-01      0.1549955571E+00
          0                 3           1             4    7     1       0.7331613739E-04       4    7    1         0.4059420298E-02      0.1084488571E-01

    ------------------------------------------------
       NWT REQUIRED            3 OUTER ITERATIONS 
       AND A TOTAL OF          5 INNER ITERATIONS.
    ------------------------------------------------

 NO OUTPUT CONTROL FOR STRESS PERIOD   15   TIME STEP   17
 
 SOLVING FOR HEAD 
                                                   Max.-Head-Change                         Max.-Flux-Residual
  Residual-Control   Outer-Iter.   Inner-Iter.     Column Row Layer    Maximum-Head-Change  Column Row Layer    Maximum-Flux-Residual          L2-NORM 
          0                 1           2             4    7     1       0.1099098692E-01       4    7    1         0.5758454653E+00      0.1539580548E+01
          0                 2           2             4    7     1      -0.1068545883E-02       4    7    1        -0.5755335326E-01      0.1539089865E+00
          0                 3           1             4    7     1       0.7270916748E-04       4    7    1         0.4025687647E-02      0.1076884917E-01

    ------------------------------------------------
       NWT REQUIRED            3 OUTER ITERATIONS 
       AND A TOTAL OF          5 INNER ITERATIONS.
    ------------------------------------------------

 NO OUTPUT CONTROL FOR STRESS PERIOD   15   TIME STEP   18
 
 SOLVING FOR HEAD 
                                                   Max.-Head-Change                         Max.-Flux-Residual
  Residual-Control   Outer-Iter.   Inner-Iter.     Column Row Layer    Maximum-Head-Change  Column Row Layer    Maximum-Flux-Residual          L2-NORM 
          0                 1           2             4    7     1       0.1090037702E-01       4    7    1         0.5710809053E+00      0.1528823257E+01
          0                 2           2             4    7     1      -0.1059736738E-02       4    7    1        -0.5707715276E-01      0.1528335957E+00
          0                 3           1             4    7     1       0.7210974911E-04       4    7    1         0.3992378746E-02      0.1069361563E-01

    ------------------------------------------------
       NWT REQUIRED            3 OUTER ITERATIONS 
       AND A TOTAL OF          5 INNER ITERATIONS.
    ------------------------------------------------

 NO OUTPUT CONTROL FOR STRESS PERIOD   15   TIME STEP   19
 
 SOLVING FOR HEAD 
                                                   Max.-Head-Change                         Max.-Flux-Residual
  Residual-Control   Outer-Iter.   Inner-Iter.     Column Row Layer    Maximum-Head-Change  Column Row Layer    Maximum-Flux-Residual          L2-NORM 
          0                 1           2             4    7     1       0.1081088648E-01       4    7    1         0.5663755317E+00      0.1518185106E+01
          0                 2           2             4    7     1      -0.1051036419E-02       4    7    1        -0.5660686775E-01      0.1517701606E+00
          0                 3           1             4    7     1       0.7151773565E-04       4    7    1         0.3959483616E-02      0.1061921550E-01

    ------------------------------------------------
       NWT REQUIRED            3 OUTER ITERATIONS 
       AND A TOTAL OF          5 INNER ITERATIONS.
    ------------------------------------------------

 NO OUTPUT CONTROL FOR STRESS PERIOD   15   TIME STEP   20
 
 SOLVING FOR HEAD 
                                                   Max.-Head-Change                         Max.-Flux-Residual
  Residual-Control   Outer-Iter.   Inner-Iter.     Column Row Layer    Maximum-Head-Change  Column Row Layer    Maximum-Flux-Residual          L2-NORM 
          0                 1           2             4    7     1       0.1072236011E-01       4    7    1         0.5617208277E+00      0.1507665602E+01
          0                 2           2             4    7     1      -0.1042429838E-02       4    7    1        -0.5614164703E-01      0.1507185205E+00
          0                 3           1             4    7     1       0.7093210078E-04       4    7    1         0.3926942720E-02      0.1054559929E-01

    ------------------------------------------------
       NWT REQUIRED            3 OUTER ITERATIONS 
       AND A TOTAL OF          5 INNER ITERATIONS.
    ------------------------------------------------

 NO OUTPUT CONTROL FOR STRESS PERIOD   15   TIME STEP   21
 
 SOLVING FOR HEAD 
                                                   Max.-Head-Change                         Max.-Flux-Residual
  Residual-Control   Outer-Iter.   Inner-Iter.     Column Row Layer    Maximum-Head-Change  Column Row Layer    Maximum-Flux-Residual          L2-NORM 
          0                 1           2             4    7     1       0.1063478345E-01       4    7    1         0.5571161145E+00      0.1497254634E+01
          0                 2           2             4    7     1      -0.1033915587E-02       4    7    1        -0.5568142272E-01      0.1496778204E+00
          0                 3           1             4    7     1       0.7035274851E-04       4    7    1         0.3894751309E-02      0.1047280913E-01

    ------------------------------------------------
       NWT REQUIRED            3 OUTER ITERATIONS 
       AND A TOTAL OF          5 INNER ITERATIONS.
    ------------------------------------------------

 NO OUTPUT CONTROL FOR STRESS PERIOD   15   TIME STEP   22
 
 SOLVING FOR HEAD 
                                                   Max.-Head-Change                         Max.-Flux-Residual
  Residual-Control   Outer-Iter.   Inner-Iter.     Column Row Layer    Maximum-Head-Change  Column Row Layer    Maximum-Flux-Residual          L2-NORM 
          0                 1           2             4    7     1       0.1054841292E-01       4    7    1         0.5525753768E+00      0.1486958898E+01
          0                 2           2             4    7     1      -0.1025518600E-02       4    7    1        -0.5522759262E-01      0.1486486107E+00
          0                 3           1             4    7     1       0.6978137545E-04       4    7    1         0.3863007179E-02      0.1040082354E-01

    ------------------------------------------------
       NWT REQUIRED            3 OUTER ITERATIONS 
       AND A TOTAL OF          5 INNER ITERATIONS.
    ------------------------------------------------

 NO OUTPUT CONTROL FOR STRESS PERIOD   15   TIME STEP   23
 
 SOLVING FOR HEAD 
                                                   Max.-Head-Change                         Max.-Flux-Residual
  Residual-Control   Outer-Iter.   Inner-Iter.     Column Row Layer    Maximum-Head-Change  Column Row Layer    Maximum-Flux-Residual          L2-NORM 
          0                 1           2             4    7     1       0.1046295314E-01       4    7    1         0.5480824402E+00      0.1476773792E+01
          0                 2           2             4    7     1      -0.1017210156E-02       4    7    1        -0.5477854009E-01      0.1476304180E+00
          0                 3           1             4    7     1       0.6921602714E-04       4    7    1         0.3831597195E-02      0.1032957188E-01

    ------------------------------------------------
       NWT REQUIRED            3 OUTER ITERATIONS 
       AND A TOTAL OF          5 INNER ITERATIONS.
    ------------------------------------------------

 NO OUTPUT CONTROL FOR STRESS PERIOD   15   TIME STEP   24
 
 SOLVING FOR HEAD 
                                                   Max.-Head-Change                         Max.-Flux-Residual
  Residual-Control   Outer-Iter.   Inner-Iter.     Column Row Layer    Maximum-Head-Change  Column Row Layer    Maximum-Flux-Residual          L2-NORM 
          0                 1           2             4    7     1       0.1037852404E-01       4    7    1         0.5436440919E+00      0.1466701163E+01
          0                 2           2             4    7     1      -0.1009001915E-02       4    7    1        -0.5433494348E-01      0.1466235242E+00
          0                 3           1             4    7     1       0.6865749715E-04       4    7    1         0.3800568849E-02      0.1025912023E-01

    ------------------------------------------------
       NWT REQUIRED            3 OUTER ITERATIONS 
       AND A TOTAL OF          5 INNER ITERATIONS.
    ------------------------------------------------

 NO OUTPUT CONTROL FOR STRESS PERIOD   15   TIME STEP   25
 
 SOLVING FOR HEAD 
                                                   Max.-Head-Change                         Max.-Flux-Residual
  Residual-Control   Outer-Iter.   Inner-Iter.     Column Row Layer    Maximum-Head-Change  Column Row Layer    Maximum-Flux-Residual          L2-NORM 
          0                 1           2             4    7     1       0.1029510514E-01       4    7    1         0.5392591824E+00      0.1456724104E+01
          0                 2           2             4    7     1      -0.1000891887E-02       4    7    1        -0.5389668795E-01      0.1456261247E+00
          0                 3           1             4    7     1       0.6810565046E-04       4    7    1         0.3769914111E-02      0.1018930929E-01

    ------------------------------------------------
       NWT REQUIRED            3 OUTER ITERATIONS 
       AND A TOTAL OF          5 INNER ITERATIONS.
    ------------------------------------------------

 NO OUTPUT CONTROL FOR STRESS PERIOD   15   TIME STEP   26
 
 SOLVING FOR HEAD 
                                                   Max.-Head-Change                         Max.-Flux-Residual
  Residual-Control   Outer-Iter.   Inner-Iter.     Column Row Layer    Maximum-Head-Change  Column Row Layer    Maximum-Flux-Residual          L2-NORM 
          0                 1           2             4    7     1       0.1021254365E-01       4    7    1         0.5349192822E+00      0.1446850580E+01
          0                 2           2             4    7     1      -0.9928652178E-03       4    7    1        -0.5346293096E-01      0.1446391512E+00
          0                 3           1             4    7     1       0.6755947565E-04       4    7    1         0.3739574030E-02      0.1012028406E-01

    ------------------------------------------------
       NWT REQUIRED            3 OUTER ITERATIONS 
       AND A TOTAL OF          5 INNER ITERATIONS.
    ------------------------------------------------

 NO OUTPUT CONTROL FOR STRESS PERIOD   15   TIME STEP   27
 
 SOLVING FOR HEAD 
                                                   Max.-Head-Change                         Max.-Flux-Residual
  Residual-Control   Outer-Iter.   Inner-Iter.     Column Row Layer    Maximum-Head-Change  Column Row Layer    Maximum-Flux-Residual          L2-NORM 
          0                 1           2             4    7     1       0.1013096864E-01       4    7    1         0.5306312051E+00      0.1437096534E+01
          0                 2           2             4    7     1      -0.9849344546E-03       4    7    1        -0.5303435351E-01      0.1436640796E+00
          0                 3           1             4    7     1       0.6701982663E-04       4    7    1         0.3709596227E-02      0.1005206739E-01

    ------------------------------------------------
       NWT REQUIRED            3 OUTER ITERATIONS 
       AND A TOTAL OF          5 INNER ITERATIONS.
    ------------------------------------------------

 NO OUTPUT CONTROL FOR STRESS PERIOD   15   TIME STEP   28
 
 SOLVING FOR HEAD 
                                                   Max.-Head-Change                         Max.-Flux-Residual
  Residual-Control   Outer-Iter.   Inner-Iter.     Column Row Layer    Maximum-Head-Change  Column Row Layer    Maximum-Flux-Residual          L2-NORM 
          0                 1           2             4    7     1       0.1005048110E-01       4    7    1         0.5263942761E+00      0.1552796945E+01
          0                 2           2             4    7     1      -0.9771094081E-03       4    7    1        -0.5261088772E-01      0.1545794188E+00
          0                 3           1             4    7     1       0.6648736987E-04       4    7    1         0.3679975940E-02      0.1075647955E-01

    ------------------------------------------------
       NWT REQUIRED            3 OUTER ITERATIONS 
       AND A TOTAL OF          5 INNER ITERATIONS.
    ------------------------------------------------

 NO OUTPUT CONTROL FOR STRESS PERIOD   15   TIME STEP   29
 
 SOLVING FOR HEAD 
                                                   Max.-Head-Change                         Max.-Flux-Residual
  Residual-Control   Outer-Iter.   Inner-Iter.     Column Row Layer    Maximum-Head-Change  Column Row Layer    Maximum-Flux-Residual          L2-NORM 
          0                 1           2             4   13     1       0.2962092084E-01       4   13    1         0.1715745186E+01      0.3358340645E+01
          0                 2           2             4   13     1      -0.2848871351E-02       4   13    1        -0.1696740667E+00      0.3270284851E+00
          0                 3           2             4   13     1       0.1909662243E-03       4   13    1         0.1169441839E-01      0.2207476452E-01
          0                 4           1             4   13     1      -0.7400826167E-05       4   13    1        -0.4660375662E-03      0.8508363323E-03

    ------------------------------------------------
       NWT REQUIRED            4 OUTER ITERATIONS 
       AND A TOTAL OF          7 INNER ITERATIONS.
    ------------------------------------------------

 NO OUTPUT CONTROL FOR STRESS PERIOD   15   TIME STEP   30



 STREAM LISTING     PERIOD     15   STEP       30

 LAYER ROW COL. STREAM  RCH.  FLOW INTO     FLOW TO   FLOW OUT OF   OVRLND.     DIRECT     STREAM       STREAM     STREAM     STREAM   STREAMBED  STREAMBED
                SEG.NO.  NO.  STRM. RCH.    AQUIFER    STRM. RCH.    RUNOFF     PRECIP       ET          HEAD       DEPTH      WIDTH   CONDCTNC.   GRADIENT

   1    1    1     1     1    9.8001E+01  4.7086E-01   9.7531E+01  0.000E+00  0.000E+00  0.000E+00  1.09484E+03  1.792E+00  2.184E+01  9.826E-02  1.597E+00
   1    2    2     1     2    9.7531E+01  7.3063E-01   9.6800E+01  0.000E+00  0.000E+00  0.000E+00  1.08985E+03  1.790E+00  2.179E+01  1.525E-01  1.597E+00
   1    3    3     1     3    9.6800E+01  6.2448E-01   9.6176E+01  0.000E+00  0.000E+00  0.000E+00  1.08421E+03  1.787E+00  2.174E+01  1.304E-01  1.596E+00
   1    3    4     1     4    9.6176E+01  5.7618E-01   9.5599E+01  0.000E+00  0.000E+00  0.000E+00  1.07919E+03  1.785E+00  2.170E+01  1.204E-01  1.595E+00
   1    4    5     2     1    9.3599E+01  4.4168E-01   9.3158E+01  0.000E+00  0.000E+00  0.000E+00  1.07460E+03  2.663E+00  1.200E+01  7.800E-02  1.888E+00
   1    5    6     2     2    9.3158E+01  3.3935E-01   9.2818E+01  0.000E+00  0.000E+00  0.000E+00  1.06917E+03  2.656E+00  1.200E+01  6.000E-02  1.885E+00
   1    6    6     2     3    9.2818E+01  3.3900E-01   9.2479E+01  0.000E+00  0.000E+00  0.000E+00  1.06444E+03  2.650E+00  1.200E+01  6.000E-02  1.883E+00
   1    7    6     2     4    9.2479E+01  3.3865E-01   9.2141E+01  0.000E+00  0.000E+00  0.000E+00  1.05972E+03  2.644E+00  1.200E+01  6.000E-02  1.881E+00
   1    8    6     2     5    9.2141E+01  3.3830E-01   9.1802E+01  0.000E+00  0.000E+00  0.000E+00  1.05500E+03  2.638E+00  1.200E+01  6.000E-02  1.879E+00
   1    3    5     3     1    2.0000E+00  2.8252E-01   1.7175E+00  0.000E+00  0.000E+00  0.000E+00  1.07555E+03  1.909E+00  9.636E+00  7.227E-02  1.955E+00
   1    3    6     3     2    1.7175E+00  2.4905E-01   1.4684E+00  0.000E+00  0.000E+00  0.000E+00  1.07264E+03  1.727E+00  8.909E+00  6.682E-02  1.864E+00
   1    3    7     3     3    1.4684E+00  1.9718E-01   1.2712E+00  0.000E+00  0.000E+00  0.000E+00  1.06987E+03  1.555E+00  8.218E+00  5.547E-02  1.777E+00
   1    4    8     3     4    1.2712E+00  2.2567E-01   1.0456E+00  0.000E+00  0.000E+00  0.000E+00  1.06682E+03  1.364E+00  7.455E+00  6.709E-02  1.682E+00
   1    5    8     3     5    1.0456E+00  1.5790E-01   8.8768E-01  0.000E+00  0.000E+00  0.000E+00  1.06362E+03  1.164E+00  6.655E+00  4.991E-02  1.582E+00
   1    6    8     3     6    8.8768E-01  5.5980E-02   8.3170E-01  0.000E+00  0.000E+00  0.000E+00  1.06158E+03  1.036E+00  6.145E+00  1.844E-02  1.518E+00
   1    5   10     4     1    1.0000E+01  9.0919E-02   9.9091E+00  0.000E+00  0.000E+00  0.000E+00  1.07836E+03  6.368E-01  1.000E+01  2.500E-02  1.212E+00
   1    5    9     4     2    9.9091E+00  1.8158E-01   9.7275E+00  0.000E+00  0.000E+00  0.000E+00  1.07154E+03  6.315E-01  1.000E+01  5.000E-02  1.211E+00
   1    6    8     4     3    9.7275E+00  1.2689E-01   9.6006E+00  0.000E+00  0.000E+00  0.000E+00  1.06381E+03  6.256E-01  1.000E+01  3.500E-02  1.209E+00
   1    6    8     5     1    1.0432E+01  2.2686E-01   1.0205E+01  0.000E+00  0.000E+00  0.000E+00  1.05868E+03  6.790E-01  1.542E+01  6.166E-02  1.226E+00
   1    7    7     5     2    1.0205E+01  2.7894E-01   9.9265E+00  0.000E+00  0.000E+00  0.000E+00  1.05417E+03  6.732E-01  1.519E+01  7.594E-02  1.224E+00
   1    8    7     5     3    9.9265E+00  1.9221E-01   9.7343E+00  0.000E+00  0.000E+00  0.000E+00  1.04992E+03  6.676E-01  1.497E+01  5.241E-02  1.223E+00
   1    8    6     5     4    9.7343E+00  1.3577E-01   9.5985E+00  0.000E+00  0.000E+00  0.000E+00  1.04691E+03  6.637E-01  1.482E+01  3.706E-02  1.221E+00
   1    9    6     6     1    1.0140E+02  3.4955E-01   1.0105E+02  0.000E+00  0.000E+00  0.000E+00  1.04555E+03  2.826E+00  1.200E+01  6.000E-02  1.942E+00
   1   10    7     6     2    1.0105E+02  3.4920E-01   1.0070E+02  0.000E+00  0.000E+00  0.000E+00  1.04100E+03  2.820E+00  1.200E+01  6.000E-02  1.940E+00
   1   11    7     6     3    1.0070E+02  3.4885E-01   1.0035E+02  0.000E+00  0.000E+00  0.000E+00  1.03645E+03  2.814E+00  1.200E+01  6.000E-02  1.938E+00
   1   12    7     6     4    1.0035E+02  3.4850E-01   1.0000E+02  0.000E+00  0.000E+00  0.000E+00  1.03190E+03  2.808E+00  1.200E+01  6.000E-02  1.936E+00
   1   13    7     6     5    1.0000E+02  3.8607E-02   9.9966E+01  0.000E+00  0.000E+00  0.000E+00  1.02871E+03  2.805E+00  1.200E+01  2.400E-02  5.362E-01
   1   14    9     7     1    1.5000E+02  1.3296E+00   1.4867E+02  0.000E+00  0.000E+00  0.000E+00  1.03987E+03  2.288E+00  5.529E+01  5.593E-01  7.924E-01
   1   13    8     7     2    1.4867E+02  1.8142E+00   1.4686E+02  0.000E+00  0.000E+00  0.000E+00  1.03478E+03  2.279E+00  5.526E+01  6.148E-01  9.837E-01
   1   13    7     7     3    1.4686E+02  1.4434E+00   1.4541E+02  0.000E+00  0.000E+00  0.000E+00  1.02969E+03  2.271E+00  5.522E+01  5.585E-01  8.615E-01
   1   13    6     8     1    2.4538E+02  1.2503E+00   2.4413E+02  0.000E+00  0.000E+00  0.000E+00  1.02526E+03  3.385E+00  4.908E+01  5.001E-01  8.334E-01
   1   13    5     8     2    2.4413E+02  4.0512E-01   2.4372E+02  0.000E+00  0.000E+00  0.000E+00  1.01901E+03  3.380E+00  4.901E+01  4.995E-01  2.704E-01
   1   13    4     8     3    2.4372E+02 -8.4086E-01   2.4456E+02  0.000E+00  0.000E+00  0.000E+00  1.01276E+03  3.381E+00  4.903E+01  4.996E+00 -5.610E-02
   1   13    3     8     4    2.4456E+02 -2.2508E+00   2.4682E+02  0.000E+00  0.000E+00  0.000E+00  1.00651E+03  3.389E+00  4.915E+01  5.008E+00 -1.498E-01
   1   13    2     8     5    2.4682E+02 -1.0723E+00   2.4789E+02  0.000E+00  0.000E+00  0.000E+00  1.00027E+03  3.398E+00  4.927E+01  5.021E+00 -7.119E-02
   1   13    1     8     6    2.4789E+02 -1.1111E+00   2.4900E+02  0.000E+00  0.000E+00  0.000E+00  9.95279E+02  3.404E+00  4.935E+01  3.017E+00 -1.227E-01





UNSATURATED ZONE PACKAGE VOLUMETRIC BUDGET FOR  TIME STEP    30 STRESS PERIOD   15
  ------------------------------------------------------------------------------



     CUMULATIVE VOLUMES      L**3       RATES FOR THIS TIME STEP      L**3/T
     ------------------                 ------------------------

           IN:                                      IN:
           ---                                      ---
        INFILTRATION =   507556132.9904          INFILTRATION =           0.8475

          OUT:                                     OUT:
          ----                                     ----
              UZF ET =   434067749.7991                UZF ET =           0.7500
        UZF RECHARGE =    72392537.6790          UZF RECHARGE =           0.0001

            IN - OUT =     1095845.5122              IN - OUT =       9.7371E-02

          STORAGE:                                 STORAGE:
          --------                                 --------
      STORAGE CHANGE =     1095851.6834        STORAGE CHANGE =       9.7371E-02

 PERCENT DISCREPANCY IS DIFFERENCE BETWEEN IN-OUT MINUS CHANGE IN STORAGE
 DIVIDED BY THE AVERAGE OF IN AND OUT TIMES 100

 PERCENT DISCREPANCY =           0.00     PERCENT DISCREPANCY =           0.00






1
  VOLUMETRIC BUDGET FOR AGRICULTURAL FIELDS AT  END OF TIME STEP   30, STRESS PERIOD  15
  ------------------------------------------------------------------------------

     CUMULATIVE VOLUMES      L**3       RATES FOR THIS TIME STEP      L**3/T
     ------------------                 ------------------------

           IN:                                      IN:
           ---                                      ---
               AG WELLS  =   476277312.0000                 AG WELLS  =           0.0000
      DIVERSION SEGMENTS =           0.0000        DIVERSION SEGMENTS =           0.0000
           GW IRRIGATION =           0.0000             GW IRRIGATION =           0.0000
           SW IRRIGATION =           0.0000             SW IRRIGATION =           0.0000
        SYSTEM LOSSES GW =           0.0000          SYSTEM LOSSES GW =           0.0000
        SYSTEM LOSSES SW =           0.0000          SYSTEM LOSSES SW =           0.0000

                TOTAL IN =   476277312.0000                  TOTAL IN =           0.0000

          OUT:                                     OUT:
          ----                                     ----
               AG WELLS  =           0.0000                 AG WELLS  =           0.0000
      DIVERSION SEGMENTS =           0.0000        DIVERSION SEGMENTS =           0.0000
           GW IRRIGATION =   476277312.0000             GW IRRIGATION =           0.0000
           SW IRRIGATION =           0.0000             SW IRRIGATION =           0.0000
        SYSTEM LOSSES GW =           0.0000          SYSTEM LOSSES GW =           0.0000
        SYSTEM LOSSES SW =           0.0000          SYSTEM LOSSES SW =           0.0000

               TOTAL OUT =   476277312.0000                 TOTAL OUT =           0.0000

                IN - OUT =           0.0000                  IN - OUT =           0.0000

     PERCENT DISCREPANCY =           0.00         PERCENT DISCREPANCY =           0.00



1
  VOLUMETRIC BUDGET FOR ENTIRE MODEL AT END OF TIME STEP   30, STRESS PERIOD  15
  ------------------------------------------------------------------------------

     CUMULATIVE VOLUMES      L**3       RATES FOR THIS TIME STEP      L**3/T
     ------------------                 ------------------------

           IN:                                      IN:
           ---                                      ---
             STORAGE     =   625695168.0000               STORAGE     =           3.6358
       CONSTANT HEAD     =           0.0000         CONSTANT HEAD     =           0.0000
     HEAD DEP BOUNDS     =    10533752.0000       HEAD DEP BOUNDS     =           0.2853
      STREAM LEAKAGE     =   454681856.0000        STREAM LEAKAGE     =          14.2780
        UZF RECHARGE     =    72392576.0000          UZF RECHARGE     =       1.2872E-04
               GW ET     =           0.0000                 GW ET     =           0.0000
     SURFACE LEAKAGE     =           0.0000       SURFACE LEAKAGE     =           0.0000
           AG WELLS      =           0.0000             AG WELLS      =           0.0000

                TOTAL IN =  1163303296.0000                  TOTAL IN =          18.1993

          OUT:                                     OUT:
          ----                                     ----
             STORAGE     =   277628320.0000               STORAGE     =          12.6336
       CONSTANT HEAD     =           0.0000         CONSTANT HEAD     =           0.0000
     HEAD DEP BOUNDS     =    10850447.0000       HEAD DEP BOUNDS     =           0.2906
      STREAM LEAKAGE     =   384801568.0000        STREAM LEAKAGE     =           5.2751
        UZF RECHARGE     =           0.0000          UZF RECHARGE     =           0.0000
               GW ET     =    13750565.0000                 GW ET     =           0.0000
     SURFACE LEAKAGE     =           0.0000       SURFACE LEAKAGE     =           0.0000
           AG WELLS      =   476277312.0000             AG WELLS      =           0.0000

               TOTAL OUT =  1163308288.0000                 TOTAL OUT =          18.1992

                IN - OUT =       -4992.0000                  IN - OUT =       3.4332E-05

     PERCENT DISCREPANCY =          -0.00         PERCENT DISCREPANCY =           0.00






         TIME SUMMARY AT END OF TIME STEP   30 IN STRESS PERIOD   15
                    SECONDS     MINUTES      HOURS       DAYS        YEARS
                    -----------------------------------------------------------
   TIME STEP LENGTH  87667.      1461.1      24.352      1.0147     2.77799E-03
 STRESS PERIOD TIME 2.63000E+06  43833.      730.56      30.440     8.33397E-02
         TOTAL TIME 3.69063E+07 6.15106E+05  10252.      427.16      1.1695    
1
1
                            STRESS PERIOD NO.   16, LENGTH =   2630000.    
                            -----------------------------------------------

                              NUMBER OF TIME STEPS =    30

                               MULTIPLIER FOR DELT =     1.000

                            INITIAL TIME STEP SIZE =   87666.66    

 REUSING NON-PARAMETER GHB CELLS FROM LAST STRESS PERIOD

      2 GHB CELLS

 REUSING STREAM SEGMENT DATA FROM LAST STRESS PERIOD



            AREAL INFILTRATION RATE
 READING ON UNIT   19 WITH FORMAT: (FREE)              

            1           2           3           4           5           6           7           8           9          10
 ........................................................................................................................
   1   1.0000E-10  2.0000E-10   0.000       0.000       0.000       0.000       0.000       0.000       0.000       0.000    
   2   2.0000E-10  1.0000E-10  2.0000E-10   0.000       0.000      8.0000E-10  8.0000E-10  5.0000E-10   0.000       0.000    
   3    0.000      5.0000E-10  1.0000E-10  1.0000E-10  8.0000E-10  8.0000E-10  5.0000E-10  5.0000E-10   0.000       0.000    
   4   8.0000E-10  5.0000E-10  1.0000E-10  1.0000E-10  1.0000E-10  1.0000E-10  1.0000E-10  1.0000E-10  2.0000E-10   0.000    
   5   8.0000E-10  5.0000E-10  1.0000E-10  1.0000E-10  1.0000E-10  1.0000E-10  1.0000E-10  1.0000E-10  1.0000E-10  1.0000E-10
   6   8.0000E-10  5.0000E-10  5.0000E-10  2.0000E-10  2.0000E-10  1.0000E-10  1.0000E-10  1.0000E-10  1.0000E-10  5.0000E-10
   7   8.0000E-10  5.0000E-10  5.0000E-10  2.0000E-10  2.0000E-10  1.0000E-10  1.0000E-10  2.0000E-10  2.0000E-10   0.000    
   8    0.000      5.0000E-10  5.0000E-10  2.0000E-10  2.0000E-10  1.0000E-10  1.0000E-10  2.0000E-10  5.0000E-10   0.000    
   9    0.000      5.0000E-10  5.0000E-10  2.0000E-10  2.0000E-10  1.0000E-10  1.0000E-10  2.0000E-10  5.0000E-10   0.000    
  10    0.000      5.0000E-10  5.0000E-10  2.0000E-10  2.0000E-10  1.0000E-10  1.0000E-10  2.0000E-10  5.0000E-10  8.0000E-10
  11    0.000      1.0000E-10  1.0000E-10  1.0000E-10  1.0000E-10  1.0000E-10  1.0000E-10  2.0000E-10  5.0000E-10   0.000    
  12   1.0000E-10  1.0000E-10  1.0000E-10  1.0000E-10  1.0000E-10  1.0000E-10  1.0000E-10  1.0000E-10  2.0000E-10   0.000    
  13   1.0000E-10  1.0000E-10  2.0000E-10  2.0000E-10  2.0000E-10  2.0000E-10  2.0000E-10  1.0000E-10  1.0000E-10   0.000    
  14    0.000      2.0000E-10  5.0000E-10  5.0000E-10  5.0000E-10  5.0000E-10  5.0000E-10  2.0000E-10  1.0000E-10   0.000    
  15    0.000       0.000      8.0000E-10  8.0000E-10  8.0000E-10  8.0000E-10   0.000       0.000       0.000       0.000    

                  ET RATE =  5.000000E-10

 USING ET EXTINCTION DEPTH FROM PREVIOUS STRESS PERIOD. CURRENT PERIOD IS:      16

 USING EXTINCTION WATER CONTENT FROM PREVIOUS STRESS PERIOD. CURRENT PERIOD IS:      16

 USING AIR ENTRY PRESSURE FROM PREVIOUS STRESS PERIOD. CURRENT PERIOD IS:      16

 USING ROOT PRESSURE HEAD FROM PREVIOUS STRESS PERIOD. CURRENT PERIOD IS:      16

 USING ROOT ACTIVITY FROM PREVIOUS STRESS PERIOD. CURRENT PERIOD IS:      16

 PROCESSING AG STRESS PERIOD DATA

 READING AG STRESS PERIOD DATA

 READING IRRIGATION WELL

 END PROCESSING AG STRESS PERIOD DATA OPTIONS
 
 SOLVING FOR HEAD 
                                                   Max.-Head-Change                         Max.-Flux-Residual
  Residual-Control   Outer-Iter.   Inner-Iter.     Column Row Layer    Maximum-Head-Change  Column Row Layer    Maximum-Flux-Residual          L2-NORM 
          0                 1           2             4   13     1       0.2659696108E-01       4   13    1         0.1539805656E+01      0.3129433988E+01
          0                 2           2             4   13     1      -0.2558053869E-02       4   13    1        -0.1522752169E+00      0.3050771269E+00
          0                 3           2             4   13     1       0.1714708725E-03       4   13    1         0.1049509327E-01      0.2062517885E-01
          0                 4           1             4   13     1      -0.6641553310E-05       4   13    1        -0.4180074429E-03      0.7967476513E-03

    ------------------------------------------------
       NWT REQUIRED            4 OUTER ITERATIONS 
       AND A TOTAL OF          7 INNER ITERATIONS.
    ------------------------------------------------

 NO OUTPUT CONTROL FOR STRESS PERIOD   16   TIME STEP    1
 
 SOLVING FOR HEAD 
                                                   Max.-Head-Change                         Max.-Flux-Residual
  Residual-Control   Outer-Iter.   Inner-Iter.     Column Row Layer    Maximum-Head-Change  Column Row Layer    Maximum-Flux-Residual          L2-NORM 
          0                 1           2             2   13     1       0.2423921241E-01       4   13    1         0.1382608393E+01      0.2925373814E+01
          0                 2           2             4   13     1      -0.2298132000E-02       4   13    1        -0.1367286278E+00      0.2855762940E+00
          0                 3           2             4   13     1       0.1540470928E-03       4   13    1         0.9423469607E-02      0.1933962211E-01
          0                 4           1             4   13     1      -0.5959401900E-05       4   13    1        -0.3748471136E-03      0.7498046636E-03

    ------------------------------------------------
       NWT REQUIRED            4 OUTER ITERATIONS 
       AND A TOTAL OF          7 INNER ITERATIONS.
    ------------------------------------------------

 NO OUTPUT CONTROL FOR STRESS PERIOD   16   TIME STEP    2
 
 SOLVING FOR HEAD 
                                                   Max.-Head-Change                         Max.-Flux-Residual
  Residual-Control   Outer-Iter.   Inner-Iter.     Column Row Layer    Maximum-Head-Change  Column Row Layer    Maximum-Flux-Residual          L2-NORM 
          0                 1           2             2   13     1       0.2225985022E-01       2   13    1         0.1263680549E+01      0.2743634906E+01
          0                 2           2             4   13     1      -0.2065692195E-02       4   13    1        -0.1228322835E+00      0.2681228257E+00
          0                 3           2             4   13     1       0.1384417468E-03       4   13    1         0.8464139929E-02      0.1818845290E-01
          0                 4           1             4   13     1      -0.5346449431E-05       4   13    1        -0.3360961427E-03      0.7066075132E-03

    ------------------------------------------------
       NWT REQUIRED            4 OUTER ITERATIONS 
       AND A TOTAL OF          7 INNER ITERATIONS.
    ------------------------------------------------

 NO OUTPUT CONTROL FOR STRESS PERIOD   16   TIME STEP    3
 
 SOLVING FOR HEAD 
                                                   Max.-Head-Change                         Max.-Flux-Residual
  Residual-Control   Outer-Iter.   Inner-Iter.     Column Row Layer    Maximum-Head-Change  Column Row Layer    Maximum-Flux-Residual          L2-NORM 
          0                 1           2             2   13     1       0.2044250844E-01       2   13    1         0.1160406242E+01      0.2581936520E+01
          0                 2           2             2   13     1      -0.1892664312E-02       4   13    1        -0.1105493563E+00      0.2527142390E+00
          0                 3           2             4   13     1       0.1246457151E-03       4   13    1         0.7618092890E-02      0.1717639411E-01
          0                 4           1             4   13     1      -0.4822542405E-05       4   13    1        -0.3030557300E-03      0.6700104189E-03

    ------------------------------------------------
       NWT REQUIRED            4 OUTER ITERATIONS 
       AND A TOTAL OF          7 INNER ITERATIONS.
    ------------------------------------------------

 NO OUTPUT CONTROL FOR STRESS PERIOD   16   TIME STEP    4
 
 SOLVING FOR HEAD 
                                                   Max.-Head-Change                         Max.-Flux-Residual
  Residual-Control   Outer-Iter.   Inner-Iter.     Column Row Layer    Maximum-Head-Change  Column Row Layer    Maximum-Flux-Residual          L2-NORM 
          0                 1           2             2   13     1       0.1877415704E-01       2   13    1         0.1065599875E+01      0.2438258639E+01
          0                 2           2             2   13     1      -0.1739447876E-02       2   13    1        -0.1014875690E+00      0.2389159772E+00
          0                 3           1             4   13     1       0.1120163434E-03       4   13    1         0.6841941679E-02      0.1626929744E-01
          0                 4           1             4   13     1      -0.4347382362E-05       4   13    1        -0.2730431434E-03      0.6367002982E-03

    ------------------------------------------------
       NWT REQUIRED            4 OUTER ITERATIONS 
       AND A TOTAL OF          6 INNER ITERATIONS.
    ------------------------------------------------

 NO OUTPUT CONTROL FOR STRESS PERIOD   16   TIME STEP    5
 
 SOLVING FOR HEAD 
                                                   Max.-Head-Change                         Max.-Flux-Residual
  Residual-Control   Outer-Iter.   Inner-Iter.     Column Row Layer    Maximum-Head-Change  Column Row Layer    Maximum-Flux-Residual          L2-NORM 
          0                 1           2             2   13     1       0.1724267694E-01       2   13    1         0.9785731813E+00      0.2310717764E+01
          0                 2           2             2   13     1      -0.1598611710E-02       2   13    1        -0.9326023446E-01      0.2267305735E+00
          0                 3           1             2   13     1       0.1016079430E-03       4   13    1         0.6155343605E-02      0.1546921645E-01
          0                 4           1             4   13     1      -0.3903842575E-05       4   13    1        -0.2450132297E-03      0.6071035234E-03

    ------------------------------------------------
       NWT REQUIRED            4 OUTER ITERATIONS 
       AND A TOTAL OF          6 INNER ITERATIONS.
    ------------------------------------------------

 NO OUTPUT CONTROL FOR STRESS PERIOD   16   TIME STEP    6
 
 SOLVING FOR HEAD 
                                                   Max.-Head-Change                         Max.-Flux-Residual
  Residual-Control   Outer-Iter.   Inner-Iter.     Column Row Layer    Maximum-Head-Change  Column Row Layer    Maximum-Flux-Residual          L2-NORM 
          0                 1           2             2   13     1       0.1583697321E-01       2   13    1         0.8986958814E+00      0.2197647747E+01
          0                 2           2             2   13     1      -0.1469206860E-02       2   13    1        -0.8570092116E-01      0.2159367298E+00
          0                 3           1             2   13     1       0.9347930897E-04       2   13    1         0.5604105595E-02      0.1476221785E-01

    ------------------------------------------------
       NWT REQUIRED            3 OUTER ITERATIONS 
       AND A TOTAL OF          5 INNER ITERATIONS.
    ------------------------------------------------

 NO OUTPUT CONTROL FOR STRESS PERIOD   16   TIME STEP    7
 
 SOLVING FOR HEAD 
                                                   Max.-Head-Change                         Max.-Flux-Residual
  Residual-Control   Outer-Iter.   Inner-Iter.     Column Row Layer    Maximum-Head-Change  Column Row Layer    Maximum-Flux-Residual          L2-NORM 
          0                 1           2             2   13     1       0.1454650592E-01       2   13    1         0.8253692831E+00      0.2097452427E+01
          0                 2           2             2   13     1      -0.1350260993E-02       2   13    1        -0.7875290996E-01      0.2063735401E+00
          0                 3           1             2   13     1       0.8597057607E-04       2   13    1         0.5153303076E-02      0.1413331888E-01

    ------------------------------------------------
       NWT REQUIRED            3 OUTER ITERATIONS 
       AND A TOTAL OF          5 INNER ITERATIONS.
    ------------------------------------------------

 NO OUTPUT CONTROL FOR STRESS PERIOD   16   TIME STEP    8
 
 SOLVING FOR HEAD 
                                                   Max.-Head-Change                         Max.-Flux-Residual
  Residual-Control   Outer-Iter.   Inner-Iter.     Column Row Layer    Maximum-Head-Change  Column Row Layer    Maximum-Flux-Residual          L2-NORM 
          0                 1           2             2   13     1       0.1336213763E-01       2   13    1         0.7580741158E+00      0.2008716210E+01
          0                 2           2             2   13     1      -0.1241043269E-02       2   13    1        -0.7237346595E-01      0.1979098970E+00
          0                 3           1             2   13     1       0.7911931205E-04       2   13    1         0.4741990413E-02      0.1358037590E-01

    ------------------------------------------------
       NWT REQUIRED            3 OUTER ITERATIONS 
       AND A TOTAL OF          5 INNER ITERATIONS.
    ------------------------------------------------

 NO OUTPUT CONTROL FOR STRESS PERIOD   16   TIME STEP    9
 
 SOLVING FOR HEAD 
                                                   Max.-Head-Change                         Max.-Flux-Residual
  Residual-Control   Outer-Iter.   Inner-Iter.     Column Row Layer    Maximum-Head-Change  Column Row Layer    Maximum-Flux-Residual          L2-NORM 
          0                 1           2             2   13     1       0.1227526085E-01       2   13    1         0.6963212402E+00      0.1930142275E+01
          0                 2           2             2   13     1      -0.1140624564E-02       2   13    1        -0.6650822986E-01      0.1904154113E+00
          0                 3           1             2   13     1       0.7274778570E-04       2   13    1         0.4359465324E-02      0.1308931381E-01

    ------------------------------------------------
       NWT REQUIRED            3 OUTER ITERATIONS 
       AND A TOTAL OF          5 INNER ITERATIONS.
    ------------------------------------------------

 NO OUTPUT CONTROL FOR STRESS PERIOD   16   TIME STEP   10
 
 SOLVING FOR HEAD 
                                                   Max.-Head-Change                         Max.-Flux-Residual
  Residual-Control   Outer-Iter.   Inner-Iter.     Column Row Layer    Maximum-Head-Change  Column Row Layer    Maximum-Flux-Residual          L2-NORM 
          0                 1           2             2   13     1       0.1127787676E-01       2   13    1         0.6396561017E+00      0.1860555145E+01
          0                 2           2             2   13     1      -0.1048433351E-02       2   13    1        -0.6112388960E-01      0.1837797345E+00
          0                 3           1             2   13     1       0.6691019685E-04       2   13    1         0.4009032622E-02      0.1265477329E-01

    ------------------------------------------------
       NWT REQUIRED            3 OUTER ITERATIONS 
       AND A TOTAL OF          5 INNER ITERATIONS.
    ------------------------------------------------

 NO OUTPUT CONTROL FOR STRESS PERIOD   16   TIME STEP   11
 
 SOLVING FOR HEAD 
                                                   Max.-Head-Change                         Max.-Flux-Residual
  Residual-Control   Outer-Iter.   Inner-Iter.     Column Row Layer    Maximum-Head-Change  Column Row Layer    Maximum-Flux-Residual          L2-NORM 
          0                 1           2             2   13     1       0.1036261605E-01       2   13    1         0.5876597502E+00      0.1798872021E+01
          0                 2           2             2   13     1      -0.9637680947E-03       2   13    1        -0.5617941373E-01      0.1778973814E+00
          0                 3           1             2   13     1       0.6153624147E-04       2   13    1         0.3686449244E-02      0.1226921896E-01

    ------------------------------------------------
       NWT REQUIRED            3 OUTER ITERATIONS 
       AND A TOTAL OF          5 INNER ITERATIONS.
    ------------------------------------------------

 NO OUTPUT CONTROL FOR STRESS PERIOD   16   TIME STEP   12
 
 SOLVING FOR HEAD 
                                                   Max.-Head-Change                         Max.-Flux-Residual
  Residual-Control   Outer-Iter.   Inner-Iter.     Column Row Layer    Maximum-Head-Change  Column Row Layer    Maximum-Flux-Residual          L2-NORM 
          0                 1           2             2   13     1       0.9522676711E-02       2   13    1         0.5399454625E+00      0.1744149372E+01
          0                 2           2             2   13     1      -0.8859798879E-03       2   13    1        -0.5163686279E-01      0.1726762299E+00
          0                 3           1             4    7     1       0.5985282141E-04       2   13    1         0.3390156206E-02      0.1192675435E-01

    ------------------------------------------------
       NWT REQUIRED            3 OUTER ITERATIONS 
       AND A TOTAL OF          5 INNER ITERATIONS.
    ------------------------------------------------

 NO OUTPUT CONTROL FOR STRESS PERIOD   16   TIME STEP   13
 
 SOLVING FOR HEAD 
                                                   Max.-Head-Change                         Max.-Flux-Residual
  Residual-Control   Outer-Iter.   Inner-Iter.     Column Row Layer    Maximum-Head-Change  Column Row Layer    Maximum-Flux-Residual          L2-NORM 
          0                 1           2             4    7     1       0.8983479117E-02       2   13    1         0.4961623252E+00      0.1695531199E+01
          0                 2           2             4    7     1      -0.8733747188E-03       2   13    1        -0.4746707246E-01      0.1680355445E+00
          0                 3           1             4    7     1       0.5942871900E-04       4    7    1         0.3286454253E-02      0.1162291039E-01

    ------------------------------------------------
       NWT REQUIRED            3 OUTER ITERATIONS 
       AND A TOTAL OF          5 INNER ITERATIONS.
    ------------------------------------------------

 NO OUTPUT CONTROL FOR STRESS PERIOD   16   TIME STEP   14
 
 SOLVING FOR HEAD 
                                                   Max.-Head-Change                         Max.-Flux-Residual
  Residual-Control   Outer-Iter.   Inner-Iter.     Column Row Layer    Maximum-Head-Change  Column Row Layer    Maximum-Flux-Residual          L2-NORM 
          0                 1           2             4    7     1       0.8920218878E-02       4    7    1         0.4667731843E+00      0.1652254551E+01
          0                 2           2             4    7     1      -0.8672245220E-03       4    7    1        -0.4665196857E-01      0.1639023028E+00
          0                 3           1             4    7     1       0.5901022835E-04       4    7    1         0.3263165119E-02      0.1135124137E-01

    ------------------------------------------------
       NWT REQUIRED            3 OUTER ITERATIONS 
       AND A TOTAL OF          5 INNER ITERATIONS.
    ------------------------------------------------

 NO OUTPUT CONTROL FOR STRESS PERIOD   16   TIME STEP   15
 
 SOLVING FOR HEAD 
                                                   Max.-Head-Change                         Max.-Flux-Residual
  Residual-Control   Outer-Iter.   Inner-Iter.     Column Row Layer    Maximum-Head-Change  Column Row Layer    Maximum-Flux-Residual          L2-NORM 
          0                 1           2             4    7     1       0.8857778641E-02       4    7    1         0.4634858520E+00      0.1613645587E+01
          0                 2           2             4    7     1      -0.8611540470E-03       4    7    1        -0.4632341179E-01      0.1602103059E+00
          0                 3           1             4    7     1       0.5859716225E-04       4    7    1         0.3240183462E-02      0.1110835718E-01

    ------------------------------------------------
       NWT REQUIRED            3 OUTER ITERATIONS 
       AND A TOTAL OF          5 INNER ITERATIONS.
    ------------------------------------------------

 NO OUTPUT CONTROL FOR STRESS PERIOD   16   TIME STEP   16
 
 SOLVING FOR HEAD 
                                                   Max.-Head-Change                         Max.-Flux-Residual
  Residual-Control   Outer-Iter.   Inner-Iter.     Column Row Layer    Maximum-Head-Change  Column Row Layer    Maximum-Flux-Residual          L2-NORM 
          0                 1           2             4    7     1       0.8796140463E-02       4    7    1         0.4602410352E+00      0.1579113563E+01
          0                 2           2             4    7     1      -0.8551615494E-03       4    7    1        -0.4599910434E-01      0.1569056093E+00
          0                 3           1             4    7     1       0.5818940202E-04       4    7    1         0.3217499028E-02      0.1089146242E-01

    ------------------------------------------------
       NWT REQUIRED            3 OUTER ITERATIONS 
       AND A TOTAL OF          5 INNER ITERATIONS.
    ------------------------------------------------

 NO OUTPUT CONTROL FOR STRESS PERIOD   16   TIME STEP   17
 
 SOLVING FOR HEAD 
                                                   Max.-Head-Change                         Max.-Flux-Residual
  Residual-Control   Outer-Iter.   Inner-Iter.     Column Row Layer    Maximum-Head-Change  Column Row Layer    Maximum-Flux-Residual          L2-NORM 
          0                 1           2             4    7     1       0.8735275651E-02       4    7    1         0.4570378040E+00      0.1548125663E+01
          0                 2           2             4    7     1      -0.8492442401E-03       4    7    1        -0.4567895328E-01      0.1539350659E+00
          0                 3           1             4    7     1       0.5778675842E-04       4    7    1         0.3195105337E-02      0.1069422671E-01

    ------------------------------------------------
       NWT REQUIRED            3 OUTER ITERATIONS 
       AND A TOTAL OF          5 INNER ITERATIONS.
    ------------------------------------------------

 NO OUTPUT CONTROL FOR STRESS PERIOD   16   TIME STEP   18
 
 SOLVING FOR HEAD 
                                                   Max.-Head-Change                         Max.-Flux-Residual
  Residual-Control   Outer-Iter.   Inner-Iter.     Column Row Layer    Maximum-Head-Change  Column Row Layer    Maximum-Flux-Residual          L2-NORM 
          0                 1           2             4    7     1       0.8675171768E-02       4    7    1         0.4538746703E+00      0.1520241213E+01
          0                 2           2             4    7     1      -0.8434009088E-03       4    7    1        -0.4536280983E-01      0.1512581626E+00
          0                 3           1             4    7     1       0.5738914827E-04       4    7    1         0.3172991972E-02      0.1051772122E-01

    ------------------------------------------------
       NWT REQUIRED            3 OUTER ITERATIONS 
       AND A TOTAL OF          5 INNER ITERATIONS.
    ------------------------------------------------

 NO OUTPUT CONTROL FOR STRESS PERIOD   16   TIME STEP   19
 
 SOLVING FOR HEAD 
                                                   Max.-Head-Change                         Max.-Flux-Residual
  Residual-Control   Outer-Iter.   Inner-Iter.     Column Row Layer    Maximum-Head-Change  Column Row Layer    Maximum-Flux-Residual          L2-NORM 
          0                 1           2             4    7     1       0.8615802822E-02       4    7    1         0.4507509895E+00      0.1495047345E+01
          0                 2           2             4    7     1      -0.8376290294E-03       4    7    1        -0.4505060962E-01      0.1488366909E+00
          0                 3           1             4    7     1       0.5699640033E-04       4    7    1         0.3151154428E-02      0.1035703888E-01

    ------------------------------------------------
       NWT REQUIRED            3 OUTER ITERATIONS 
       AND A TOTAL OF          5 INNER ITERATIONS.
    ------------------------------------------------

 NO OUTPUT CONTROL FOR STRESS PERIOD   16   TIME STEP   20
 
 SOLVING FOR HEAD 
                                                   Max.-Head-Change                         Max.-Flux-Residual
  Residual-Control   Outer-Iter.   Inner-Iter.     Column Row Layer    Maximum-Head-Change  Column Row Layer    Maximum-Flux-Residual          L2-NORM 
          0                 1           2             4    7     1       0.8557283812E-02       4    7    1         0.4476727857E+00      0.1472188877E+01
          0                 2           2             4    7     1      -0.8319397824E-03       4    7    1        -0.4474295473E-01      0.1466351762E+00
          0                 3           1             4    7     1       0.5660927528E-04       4    7    1         0.3129634815E-02      0.1021099800E-01

    ------------------------------------------------
       NWT REQUIRED            3 OUTER ITERATIONS 
       AND A TOTAL OF          5 INNER ITERATIONS.
    ------------------------------------------------

 NO OUTPUT CONTROL FOR STRESS PERIOD   16   TIME STEP   21
 
 SOLVING FOR HEAD 
                                                   Max.-Head-Change                         Max.-Flux-Residual
  Residual-Control   Outer-Iter.   Inner-Iter.     Column Row Layer    Maximum-Head-Change  Column Row Layer    Maximum-Flux-Residual          L2-NORM 
          0                 1           2             4    7     1       0.8499324882E-02       4    7    1         0.4446239060E+00      0.1451391130E+01
          0                 2           2             4    7     1      -0.8263049865E-03       4    7    1        -0.4443823068E-01      0.1446276599E+00
          0                 3           1             4    7     1       0.5622585476E-04       4    7    1         0.3108320188E-02      0.1007699969E-01

    ------------------------------------------------
       NWT REQUIRED            3 OUTER ITERATIONS 
       AND A TOTAL OF          5 INNER ITERATIONS.
    ------------------------------------------------

 NO OUTPUT CONTROL FOR STRESS PERIOD   16   TIME STEP   22
 
 SOLVING FOR HEAD 
                                                   Max.-Head-Change                         Max.-Flux-Residual
  Residual-Control   Outer-Iter.   Inner-Iter.     Column Row Layer    Maximum-Head-Change  Column Row Layer    Maximum-Flux-Residual          L2-NORM 
          0                 1           2             4    7     1       0.8442183240E-02       4    7    1         0.4416188094E+00      0.1432371359E+01
          0                 2           2             4    7     1      -0.8207496482E-03       4    7    1        -0.4413788262E-01      0.1427891950E+00
          0                 3           1             4    7     1       0.5584784104E-04       4    7    1         0.3087311663E-02      0.9953568403E-02

    ------------------------------------------------
       NWT REQUIRED            3 OUTER ITERATIONS 
       AND A TOTAL OF          5 INNER ITERATIONS.
    ------------------------------------------------

 NO OUTPUT CONTROL FOR STRESS PERIOD   16   TIME STEP   23
 
 SOLVING FOR HEAD 
                                                   Max.-Head-Change                         Max.-Flux-Residual
  Residual-Control   Outer-Iter.   Inner-Iter.     Column Row Layer    Maximum-Head-Change  Column Row Layer    Maximum-Flux-Residual          L2-NORM 
          0                 1           2             4    7     1       0.8385698393E-02       4    7    1         0.4386487157E+00      0.1414904176E+01
          0                 2           2             4    7     1      -0.8152581656E-03       4    7    1        -0.4384103308E-01      0.1410965844E+00
          0                 3           1             4    7     1       0.5547417311E-04       4    7    1         0.3066547874E-02      0.9840097344E-02

    ------------------------------------------------
       NWT REQUIRED            3 OUTER ITERATIONS 
       AND A TOTAL OF          5 INNER ITERATIONS.
    ------------------------------------------------

 NO OUTPUT CONTROL FOR STRESS PERIOD   16   TIME STEP   24
 
 SOLVING FOR HEAD 
                                                   Max.-Head-Change                         Max.-Flux-Residual
  Residual-Control   Outer-Iter.   Inner-Iter.     Column Row Layer    Maximum-Head-Change  Column Row Layer    Maximum-Flux-Residual          L2-NORM 
          0                 1           2             4    7     1       0.8329857329E-02       4    7    1         0.4357126757E+00      0.1398801679E+01
          0                 2           2             4    7     1      -0.8098292714E-03       4    7    1        -0.4354758704E-01      0.1395549968E+00
          0                 3           1             4    7     1       0.5510476365E-04       4    7    1         0.3046022136E-02      0.9736781227E-02

    ------------------------------------------------
       NWT REQUIRED            3 OUTER ITERATIONS 
       AND A TOTAL OF          5 INNER ITERATIONS.
    ------------------------------------------------

 NO OUTPUT CONTROL FOR STRESS PERIOD   16   TIME STEP   25
 
 SOLVING FOR HEAD 
                                                   Max.-Head-Change                         Max.-Flux-Residual
  Residual-Control   Outer-Iter.   Inner-Iter.     Column Row Layer    Maximum-Head-Change  Column Row Layer    Maximum-Flux-Residual          L2-NORM 
          0                 1           2             4    7     1       0.8274644201E-02       4    7    1         0.4328100148E+00      0.1383873458E+01
          0                 2           2             4    7     1      -0.8044614265E-03       4    7    1        -0.4325747717E-01      0.1380825423E+00
          0                 3           1             4    7     1       0.5473950827E-04       4    7    1         0.3025729770E-02      0.9637577245E-02

    ------------------------------------------------
       NWT REQUIRED            3 OUTER ITERATIONS 
       AND A TOTAL OF          5 INNER ITERATIONS.
    ------------------------------------------------

 NO OUTPUT CONTROL FOR STRESS PERIOD   16   TIME STEP   26
 
 SOLVING FOR HEAD 
                                                   Max.-Head-Change                         Max.-Flux-Residual
  Residual-Control   Outer-Iter.   Inner-Iter.     Column Row Layer    Maximum-Head-Change  Column Row Layer    Maximum-Flux-Residual          L2-NORM 
          0                 1           2             4    7     1       0.8220044614E-02       4    7    1         0.4299399112E+00      0.1369957435E+01
          0                 2           2             4    7     1      -0.7991532303E-03       4    7    1        -0.4297062130E-01      0.1367259264E+00
          0                 3           1             4    7     1       0.5437831196E-04       4    7    1         0.3005664993E-02      0.9545905754E-02

    ------------------------------------------------
       NWT REQUIRED            3 OUTER ITERATIONS 
       AND A TOTAL OF          5 INNER ITERATIONS.
    ------------------------------------------------

 NO OUTPUT CONTROL FOR STRESS PERIOD   16   TIME STEP   27
 
 SOLVING FOR HEAD 
                                                   Max.-Head-Change                         Max.-Flux-Residual
  Residual-Control   Outer-Iter.   Inner-Iter.     Column Row Layer    Maximum-Head-Change  Column Row Layer    Maximum-Flux-Residual          L2-NORM 
          0                 1           2             4    7     1       0.8166176523E-02       4    7    1         0.4271089915E+00      0.1356966347E+01
          0                 2           2             4    7     1      -0.7939161514E-03       4    7    1        -0.4268768178E-01      0.1354575515E+00
          0                 3           1             4    7     1       0.5402195456E-04       4    7    1         0.2985874168E-02      0.9459784447E-02

    ------------------------------------------------
       NWT REQUIRED            3 OUTER ITERATIONS 
       AND A TOTAL OF          5 INNER ITERATIONS.
    ------------------------------------------------

 NO OUTPUT CONTROL FOR STRESS PERIOD   16   TIME STEP   28
 
 SOLVING FOR HEAD 
                                                   Max.-Head-Change                         Max.-Flux-Residual
  Residual-Control   Outer-Iter.   Inner-Iter.     Column Row Layer    Maximum-Head-Change  Column Row Layer    Maximum-Flux-Residual          L2-NORM 
          0                 1           2             4    7     1       0.8112750779E-02       4    7    1         0.4243012529E+00      0.1344783677E+01
          0                 2           2             4    7     1      -0.7887220777E-03       4    7    1        -0.4240705912E-01      0.1342659897E+00
          0                 3           1             4    7     1       0.5366852338E-04       4    7    1         0.2966245386E-02      0.9378974785E-02

    ------------------------------------------------
       NWT REQUIRED            3 OUTER ITERATIONS 
       AND A TOTAL OF          5 INNER ITERATIONS.
    ------------------------------------------------

 NO OUTPUT CONTROL FOR STRESS PERIOD   16   TIME STEP   29
 
 SOLVING FOR HEAD 
                                                   Max.-Head-Change                         Max.-Flux-Residual
  Residual-Control   Outer-Iter.   Inner-Iter.     Column Row Layer    Maximum-Head-Change  Column Row Layer    Maximum-Flux-Residual          L2-NORM 
          0                 1           2             4    7     1       0.8059989055E-02       4    7    1         0.4215311951E+00      0.1289376493E+01
          0                 2           2             4    7     1      -0.7835925639E-03       4    7    1        -0.4213020269E-01      0.1288806264E+00
          0                 3           1             4    7     1       0.5331948651E-04       4    7    1         0.2946880083E-02      0.9016466804E-02

    ------------------------------------------------
       NWT REQUIRED            3 OUTER ITERATIONS 
       AND A TOTAL OF          5 INNER ITERATIONS.
    ------------------------------------------------

 NO OUTPUT CONTROL FOR STRESS PERIOD   16   TIME STEP   30



 STREAM LISTING     PERIOD     16   STEP       30

 LAYER ROW COL. STREAM  RCH.  FLOW INTO     FLOW TO   FLOW OUT OF   OVRLND.     DIRECT     STREAM       STREAM     STREAM     STREAM   STREAMBED  STREAMBED
                SEG.NO.  NO.  STRM. RCH.    AQUIFER    STRM. RCH.    RUNOFF     PRECIP       ET          HEAD       DEPTH      WIDTH   CONDCTNC.   GRADIENT

   1    1    1     1     1    8.8455E+01  4.5169E-01   8.8003E+01  0.000E+00  0.000E+00  0.000E+00  1.09480E+03  1.756E+00  2.111E+01  9.498E-02  1.585E+00
   1    2    2     1     2    8.8003E+01  7.0076E-01   8.7302E+01  0.000E+00  0.000E+00  0.000E+00  1.08981E+03  1.753E+00  2.106E+01  1.474E-01  1.584E+00
   1    3    3     1     3    8.7302E+01  5.9885E-01   8.6704E+01  0.000E+00  0.000E+00  0.000E+00  1.08417E+03  1.751E+00  2.101E+01  1.260E-01  1.584E+00
   1    3    4     1     4    8.6704E+01  5.5245E-01   8.6151E+01  0.000E+00  0.000E+00  0.000E+00  1.07916E+03  1.749E+00  2.096E+01  1.163E-01  1.583E+00
   1    4    5     2     1    8.4151E+01  4.2881E-01   8.3722E+01  0.000E+00  0.000E+00  0.000E+00  1.07443E+03  2.498E+00  1.200E+01  7.800E-02  1.833E+00
   1    5    6     2     2    8.3722E+01  3.2945E-01   8.3393E+01  0.000E+00  0.000E+00  0.000E+00  1.06900E+03  2.491E+00  1.200E+01  6.000E-02  1.830E+00
   1    6    6     2     3    8.3393E+01  3.2909E-01   8.3064E+01  0.000E+00  0.000E+00  0.000E+00  1.06428E+03  2.485E+00  1.200E+01  6.000E-02  1.828E+00
   1    7    6     2     4    8.3064E+01  3.2874E-01   8.2735E+01  0.000E+00  0.000E+00  0.000E+00  1.05955E+03  2.479E+00  1.200E+01  6.000E-02  1.826E+00
   1    8    6     2     5    8.2735E+01  3.2839E-01   8.2407E+01  0.000E+00  0.000E+00  0.000E+00  1.05483E+03  2.473E+00  1.200E+01  6.000E-02  1.824E+00
   1    3    5     3     1    2.0000E+00  2.8252E-01   1.7175E+00  0.000E+00  0.000E+00  0.000E+00  1.07555E+03  1.909E+00  9.636E+00  7.227E-02  1.955E+00
   1    3    6     3     2    1.7175E+00  2.4905E-01   1.4684E+00  0.000E+00  0.000E+00  0.000E+00  1.07264E+03  1.727E+00  8.909E+00  6.682E-02  1.864E+00
   1    3    7     3     3    1.4684E+00  1.9718E-01   1.2712E+00  0.000E+00  0.000E+00  0.000E+00  1.06987E+03  1.555E+00  8.218E+00  5.547E-02  1.777E+00
   1    4    8     3     4    1.2712E+00  2.2567E-01   1.0456E+00  0.000E+00  0.000E+00  0.000E+00  1.06682E+03  1.364E+00  7.455E+00  6.709E-02  1.682E+00
   1    5    8     3     5    1.0456E+00  1.5790E-01   8.8768E-01  0.000E+00  0.000E+00  0.000E+00  1.06362E+03  1.164E+00  6.655E+00  4.991E-02  1.582E+00
   1    6    8     3     6    8.8768E-01  5.5980E-02   8.3170E-01  0.000E+00  0.000E+00  0.000E+00  1.06158E+03  1.036E+00  6.145E+00  1.844E-02  1.518E+00
   1    5   10     4     1    1.0000E+01  9.0919E-02   9.9091E+00  0.000E+00  0.000E+00  0.000E+00  1.07836E+03  6.368E-01  1.000E+01  2.500E-02  1.212E+00
   1    5    9     4     2    9.9091E+00  1.8158E-01   9.7275E+00  0.000E+00  0.000E+00  0.000E+00  1.07154E+03  6.315E-01  1.000E+01  5.000E-02  1.211E+00
   1    6    8     4     3    9.7275E+00  1.2689E-01   9.6006E+00  0.000E+00  0.000E+00  0.000E+00  1.06381E+03  6.256E-01  1.000E+01  3.500E-02  1.209E+00
   1    6    8     5     1    1.0432E+01  2.2686E-01   1.0205E+01  0.000E+00  0.000E+00  0.000E+00  1.05868E+03  6.790E-01  1.542E+01  6.166E-02  1.226E+00
   1    7    7     5     2    1.0205E+01  2.7894E-01   9.9265E+00  0.000E+00  0.000E+00  0.000E+00  1.05417E+03  6.732E-01  1.519E+01  7.594E-02  1.224E+00
   1    8    7     5     3    9.9265E+00  1.9221E-01   9.7343E+00  0.000E+00  0.000E+00  0.000E+00  1.04992E+03  6.676E-01  1.497E+01  5.241E-02  1.223E+00
   1    8    6     5     4    9.7343E+00  1.3577E-01   9.5985E+00  0.000E+00  0.000E+00  0.000E+00  1.04691E+03  6.637E-01  1.482E+01  3.706E-02  1.221E+00
   1    9    6     6     1    9.2005E+01  3.3993E-01   9.1665E+01  0.000E+00  0.000E+00  0.000E+00  1.04539E+03  2.665E+00  1.200E+01  6.000E-02  1.888E+00
   1   10    7     6     2    9.1665E+01  3.3957E-01   9.1326E+01  0.000E+00  0.000E+00  0.000E+00  1.04084E+03  2.660E+00  1.200E+01  6.000E-02  1.887E+00
   1   11    7     6     3    9.1326E+01  3.3922E-01   9.0986E+01  0.000E+00  0.000E+00  0.000E+00  1.03629E+03  2.654E+00  1.200E+01  6.000E-02  1.885E+00
   1   12    7     6     4    9.0986E+01  3.3886E-01   9.0648E+01  0.000E+00  0.000E+00  0.000E+00  1.03174E+03  2.648E+00  1.200E+01  6.000E-02  1.883E+00
   1   13    7     6     5    9.0648E+01  3.4641E-02   9.0613E+01  0.000E+00  0.000E+00  0.000E+00  1.02855E+03  2.644E+00  1.200E+01  2.400E-02  4.811E-01
   1   14    9     7     1    1.5000E+02  1.3300E+00   1.4867E+02  0.000E+00  0.000E+00  0.000E+00  1.03987E+03  2.288E+00  5.529E+01  5.593E-01  7.927E-01
   1   13    8     7     2    1.4867E+02  1.8192E+00   1.4685E+02  0.000E+00  0.000E+00  0.000E+00  1.03478E+03  2.279E+00  5.526E+01  6.148E-01  9.864E-01
   1   13    7     7     3    1.4685E+02  1.4407E+00   1.4541E+02  0.000E+00  0.000E+00  0.000E+00  1.02969E+03  2.271E+00  5.522E+01  5.585E-01  8.600E-01
   1   13    6     8     1    2.3602E+02  1.1662E+00   2.3486E+02  0.000E+00  0.000E+00  0.000E+00  1.02521E+03  3.336E+00  4.837E+01  4.929E-01  7.887E-01
   1   13    5     8     2    2.3486E+02  3.2592E-01   2.3453E+02  0.000E+00  0.000E+00  0.000E+00  1.01896E+03  3.332E+00  4.831E+01  4.923E-01  2.207E-01
   1   13    4     8     3    2.3453E+02 -2.2012E+00   2.3673E+02  0.000E+00  0.000E+00  0.000E+00  1.01271E+03  3.337E+00  4.838E+01  4.930E+00 -1.488E-01
   1   13    3     8     4    2.3673E+02 -3.5752E+00   2.4031E+02  0.000E+00  0.000E+00  0.000E+00  1.00648E+03  3.352E+00  4.860E+01  4.953E+00 -2.406E-01
   1   13    2     8     5    2.4031E+02 -2.5564E+00   2.4286E+02  0.000E+00  0.000E+00  0.000E+00  1.00024E+03  3.368E+00  4.884E+01  4.977E+00 -1.712E-01
   1   13    1     8     6    2.4286E+02 -1.8856E+00   2.4475E+02  0.000E+00  0.000E+00  0.000E+00  9.95255E+02  3.380E+00  4.900E+01  2.996E+00 -2.098E-01





UNSATURATED ZONE PACKAGE VOLUMETRIC BUDGET FOR  TIME STEP    30 STRESS PERIOD   16
  ------------------------------------------------------------------------------



     CUMULATIVE VOLUMES      L**3       RATES FOR THIS TIME STEP      L**3/T
     ------------------                 ------------------------

           IN:                                      IN:
           ---                                      ---
        INFILTRATION =   509785057.8631          INFILTRATION =           0.8475

          OUT:                                     OUT:
          ----                                     ----
              UZF ET =   436040249.6778                UZF ET =           0.7500
        UZF RECHARGE =    72392846.7693          UZF RECHARGE =           0.0001

            IN - OUT =     1351961.4160              IN - OUT =       9.7392E-02

          STORAGE:                                 STORAGE:
          --------                                 --------
      STORAGE CHANGE =     1351967.6080        STORAGE CHANGE =       9.7392E-02

 PERCENT DISCREPANCY IS DIFFERENCE BETWEEN IN-OUT MINUS CHANGE IN STORAGE
 DIVIDED BY THE AVERAGE OF IN AND OUT TIMES 100

 PERCENT DISCREPANCY =           0.00     PERCENT DISCREPANCY =           0.00






1
  VOLUMETRIC BUDGET FOR AGRICULTURAL FIELDS AT  END OF TIME STEP   30, STRESS PERIOD  16
  ------------------------------------------------------------------------------

     CUMULATIVE VOLUMES      L**3       RATES FOR THIS TIME STEP      L**3/T
     ------------------                 ------------------------

           IN:                                      IN:
           ---                                      ---
               AG WELLS  =   476277312.0000                 AG WELLS  =           0.0000
      DIVERSION SEGMENTS =           0.0000        DIVERSION SEGMENTS =           0.0000
           GW IRRIGATION =           0.0000             GW IRRIGATION =           0.0000
           SW IRRIGATION =           0.0000             SW IRRIGATION =           0.0000
        SYSTEM LOSSES GW =           0.0000          SYSTEM LOSSES GW =           0.0000
        SYSTEM LOSSES SW =           0.0000          SYSTEM LOSSES SW =           0.0000

                TOTAL IN =   476277312.0000                  TOTAL IN =           0.0000

          OUT:                                     OUT:
          ----                                     ----
               AG WELLS  =           0.0000                 AG WELLS  =           0.0000
      DIVERSION SEGMENTS =           0.0000        DIVERSION SEGMENTS =           0.0000
           GW IRRIGATION =   476277312.0000             GW IRRIGATION =           0.0000
           SW IRRIGATION =           0.0000             SW IRRIGATION =           0.0000
        SYSTEM LOSSES GW =           0.0000          SYSTEM LOSSES GW =           0.0000
        SYSTEM LOSSES SW =           0.0000          SYSTEM LOSSES SW =           0.0000

               TOTAL OUT =   476277312.0000                 TOTAL OUT =           0.0000

                IN - OUT =           0.0000                  IN - OUT =           0.0000

     PERCENT DISCREPANCY =           0.00         PERCENT DISCREPANCY =           0.00



1
  VOLUMETRIC BUDGET FOR ENTIRE MODEL AT END OF TIME STEP   30, STRESS PERIOD  16
  ------------------------------------------------------------------------------

     CUMULATIVE VOLUMES      L**3       RATES FOR THIS TIME STEP      L**3/T
     ------------------                 ------------------------

           IN:                                      IN:
           ---                                      ---
             STORAGE     =   633327680.0000               STORAGE     =           2.7175
       CONSTANT HEAD     =           0.0000         CONSTANT HEAD     =           0.0000
     HEAD DEP BOUNDS     =    11284224.0000       HEAD DEP BOUNDS     =           0.2854
      STREAM LEAKAGE     =   492073888.0000        STREAM LEAKAGE     =          13.9240
        UZF RECHARGE     =    72392816.0000          UZF RECHARGE     =       1.0762E-04
               GW ET     =           0.0000                 GW ET     =           0.0000
     SURFACE LEAKAGE     =           0.0000       SURFACE LEAKAGE     =           0.0000
           AG WELLS      =           0.0000             AG WELLS      =           0.0000

                TOTAL IN =  1209078656.0000                  TOTAL IN =          16.9269

          OUT:                                     OUT:
          ----                                     ----
             STORAGE     =   300721024.0000               STORAGE     =           6.4046
       CONSTANT HEAD     =           0.0000         CONSTANT HEAD     =           0.0000
     HEAD DEP BOUNDS     =    11629873.0000       HEAD DEP BOUNDS     =           0.2996
      STREAM LEAKAGE     =   406698688.0000        STREAM LEAKAGE     =          10.2184
        UZF RECHARGE     =           0.0000          UZF RECHARGE     =           0.0000
               GW ET     =    13759900.0000                 GW ET     =       5.3545E-03
     SURFACE LEAKAGE     =           0.0000       SURFACE LEAKAGE     =           0.0000
           AG WELLS      =   476277312.0000             AG WELLS      =           0.0000

               TOTAL OUT =  1209086720.0000                 TOTAL OUT =          16.9280

                IN - OUT =       -8064.0000                  IN - OUT =      -1.0529E-03

     PERCENT DISCREPANCY =          -0.00         PERCENT DISCREPANCY =          -0.01






         TIME SUMMARY AT END OF TIME STEP   30 IN STRESS PERIOD   16
                    SECONDS     MINUTES      HOURS       DAYS        YEARS
                    -----------------------------------------------------------
   TIME STEP LENGTH  87667.      1461.1      24.352      1.0147     2.77799E-03
 STRESS PERIOD TIME 2.63000E+06  43833.      730.56      30.440     8.33397E-02
         TOTAL TIME 3.95364E+07 6.58940E+05  10982.      457.60      1.2528    
1
1
                            STRESS PERIOD NO.   17, LENGTH =   2630000.    
                            -----------------------------------------------

                              NUMBER OF TIME STEPS =    30

                               MULTIPLIER FOR DELT =     1.000

                            INITIAL TIME STEP SIZE =   87666.66    

 REUSING NON-PARAMETER GHB CELLS FROM LAST STRESS PERIOD

      2 GHB CELLS

 REUSING STREAM SEGMENT DATA FROM LAST STRESS PERIOD



            AREAL INFILTRATION RATE
 READING ON UNIT   19 WITH FORMAT: (FREE)              

            1           2           3           4           5           6           7           8           9          10
 ........................................................................................................................
   1   1.0000E-10  2.0000E-10   0.000       0.000       0.000       0.000       0.000       0.000       0.000       0.000    
   2   2.0000E-10  1.0000E-10  2.0000E-10   0.000       0.000      8.0000E-10  8.0000E-10  5.0000E-10   0.000       0.000    
   3    0.000      5.0000E-10  1.0000E-10  1.0000E-10  8.0000E-10  8.0000E-10  5.0000E-10  5.0000E-10   0.000       0.000    
   4   8.0000E-10  5.0000E-10  1.0000E-10  1.0000E-10  1.0000E-10  1.0000E-10  1.0000E-10  1.0000E-10  2.0000E-10   0.000    
   5   8.0000E-10  5.0000E-10  1.0000E-10  1.0000E-10  1.0000E-10  1.0000E-10  1.0000E-10  1.0000E-10  1.0000E-10  1.0000E-10
   6   8.0000E-10  5.0000E-10  5.0000E-10  2.0000E-10  2.0000E-10  1.0000E-10  1.0000E-10  1.0000E-10  1.0000E-10  5.0000E-10
   7   8.0000E-10  5.0000E-10  5.0000E-10  2.0000E-10  2.0000E-10  1.0000E-10  1.0000E-10  2.0000E-10  2.0000E-10   0.000    
   8    0.000      5.0000E-10  5.0000E-10  2.0000E-10  2.0000E-10  1.0000E-10  1.0000E-10  2.0000E-10  5.0000E-10   0.000    
   9    0.000      5.0000E-10  5.0000E-10  2.0000E-10  2.0000E-10  1.0000E-10  1.0000E-10  2.0000E-10  5.0000E-10   0.000    
  10    0.000      5.0000E-10  5.0000E-10  2.0000E-10  2.0000E-10  1.0000E-10  1.0000E-10  2.0000E-10  5.0000E-10  8.0000E-10
  11    0.000      1.0000E-10  1.0000E-10  1.0000E-10  1.0000E-10  1.0000E-10  1.0000E-10  2.0000E-10  5.0000E-10   0.000    
  12   1.0000E-10  1.0000E-10  1.0000E-10  1.0000E-10  1.0000E-10  1.0000E-10  1.0000E-10  1.0000E-10  2.0000E-10   0.000    
  13   1.0000E-10  1.0000E-10  2.0000E-10  2.0000E-10  2.0000E-10  2.0000E-10  2.0000E-10  1.0000E-10  1.0000E-10   0.000    
  14    0.000      2.0000E-10  5.0000E-10  5.0000E-10  5.0000E-10  5.0000E-10  5.0000E-10  2.0000E-10  1.0000E-10   0.000    
  15    0.000       0.000      8.0000E-10  8.0000E-10  8.0000E-10  8.0000E-10   0.000       0.000       0.000       0.000    

                  ET RATE =  2.500000E-08

 USING ET EXTINCTION DEPTH FROM PREVIOUS STRESS PERIOD. CURRENT PERIOD IS:      17

 USING EXTINCTION WATER CONTENT FROM PREVIOUS STRESS PERIOD. CURRENT PERIOD IS:      17

 USING AIR ENTRY PRESSURE FROM PREVIOUS STRESS PERIOD. CURRENT PERIOD IS:      17

 USING ROOT PRESSURE HEAD FROM PREVIOUS STRESS PERIOD. CURRENT PERIOD IS:      17

 USING ROOT ACTIVITY FROM PREVIOUS STRESS PERIOD. CURRENT PERIOD IS:      17

 PROCESSING AG STRESS PERIOD DATA

 READING AG STRESS PERIOD DATA

 READING IRRIGATION WELL

 END PROCESSING AG STRESS PERIOD DATA OPTIONS
 
 SOLVING FOR HEAD 
                                                   Max.-Head-Change                         Max.-Flux-Residual
  Residual-Control   Outer-Iter.   Inner-Iter.     Column Row Layer    Maximum-Head-Change  Column Row Layer    Maximum-Flux-Residual          L2-NORM 
          0                 1           2             4   13     1      -0.9932484438E-02       4   13    1        -0.5865304745E+00      0.1395419966E+01
          0                 2           2             4   13     1       0.9573925998E-03       4   13    1         0.5813081731E-01      0.1381543334E+00
          0                 3           1             4   13     1      -0.6438256074E-04       4   13    1        -0.4019439730E-02      0.9545156069E-02

    ------------------------------------------------
       NWT REQUIRED            3 OUTER ITERATIONS 
       AND A TOTAL OF          5 INNER ITERATIONS.
    ------------------------------------------------

 NO OUTPUT CONTROL FOR STRESS PERIOD   17   TIME STEP    1
 
 SOLVING FOR HEAD 
                                                   Max.-Head-Change                         Max.-Flux-Residual
  Residual-Control   Outer-Iter.   Inner-Iter.     Column Row Layer    Maximum-Head-Change  Column Row Layer    Maximum-Flux-Residual          L2-NORM 
          0                 1           2             3   13     1      -0.8781965180E-02       4   13    1        -0.5162053018E+00      0.1311220677E+01
          0                 2           2             4   13     1       0.8427128119E-03       4   13    1         0.5115753819E-01      0.1299292135E+00
          0                 3           1             4   13     1      -0.5665018674E-04       4   13    1        -0.3535998509E-02      0.8986614865E-02

    ------------------------------------------------
       NWT REQUIRED            3 OUTER ITERATIONS 
       AND A TOTAL OF          5 INNER ITERATIONS.
    ------------------------------------------------

 NO OUTPUT CONTROL FOR STRESS PERIOD   17   TIME STEP    2
 
 SOLVING FOR HEAD 
                                                   Max.-Head-Change                         Max.-Flux-Residual
  Residual-Control   Outer-Iter.   Inner-Iter.     Column Row Layer    Maximum-Head-Change  Column Row Layer    Maximum-Flux-Residual          L2-NORM 
          0                 1           2             3   13     1      -0.7830820972E-02       3   13    1        -0.4569303776E+00      0.1237304641E+01
          0                 2           2             3   13     1       0.7430747375E-03       4   13    1         0.4503180650E-01      0.1227093600E+00
          0                 3           1             4   13     1      -0.4988854048E-04       4   13    1        -0.3113321181E-02      0.8497422413E-02

    ------------------------------------------------
       NWT REQUIRED            3 OUTER ITERATIONS 
       AND A TOTAL OF          5 INNER ITERATIONS.
    ------------------------------------------------

 NO OUTPUT CONTROL FOR STRESS PERIOD   17   TIME STEP    3
 
 SOLVING FOR HEAD 
                                                   Max.-Head-Change                         Max.-Flux-Residual
  Residual-Control   Outer-Iter.   Inner-Iter.     Column Row Layer    Maximum-Head-Change  Column Row Layer    Maximum-Flux-Residual          L2-NORM 
          0                 1           2             3   13     1      -0.6983051443E-02       3   13    1        -0.4074384228E+00      0.1172297931E+01
          0                 2           2             3   13     1       0.6627219863E-03       3   13    1         0.3975526472E-01      0.1163586757E+00
          0                 3           1             4   13     1      -0.4392937884E-04       4   13    1        -0.2740868084E-02      0.8066524526E-02

    ------------------------------------------------
       NWT REQUIRED            3 OUTER ITERATIONS 
       AND A TOTAL OF          5 INNER ITERATIONS.
    ------------------------------------------------

 NO OUTPUT CONTROL FOR STRESS PERIOD   17   TIME STEP    4
 
 SOLVING FOR HEAD 
                                                   Max.-Head-Change                         Max.-Flux-Residual
  Residual-Control   Outer-Iter.   Inner-Iter.     Column Row Layer    Maximum-Head-Change  Column Row Layer    Maximum-Flux-Residual          L2-NORM 
          0                 1           2             3    7     1       0.6313821755E-02       3   13    1        -0.3633235801E+00      0.1114968423E+01
          0                 2           2             3    7     1      -0.6141622859E-03       3   13    1         0.3545466218E-01      0.1107548050E+00
          0                 3           1             3    7     1       0.4182224096E-04       4   13    1        -0.2412479513E-02      0.7685077818E-02

    ------------------------------------------------
       NWT REQUIRED            3 OUTER ITERATIONS 
       AND A TOTAL OF          5 INNER ITERATIONS.
    ------------------------------------------------

 NO OUTPUT CONTROL FOR STRESS PERIOD   17   TIME STEP    5
 
 SOLVING FOR HEAD 
                                                   Max.-Head-Change                         Max.-Flux-Residual
  Residual-Control   Outer-Iter.   Inner-Iter.     Column Row Layer    Maximum-Head-Change  Column Row Layer    Maximum-Flux-Residual          L2-NORM 
          0                 1           2             3    7     1       0.6178539021E-02       3   13    1        -0.3240040282E+00      0.1064273676E+01
          0                 2           2             3    7     1      -0.6010029676E-03       3   13    1         0.3162239086E-01      0.1057981232E+00
          0                 3           1             3    7     1       0.4092613608E-04       3   13    1        -0.2138781037E-02      0.7349001547E-02

    ------------------------------------------------
       NWT REQUIRED            3 OUTER ITERATIONS 
       AND A TOTAL OF          5 INNER ITERATIONS.
    ------------------------------------------------

 NO OUTPUT CONTROL FOR STRESS PERIOD   17   TIME STEP    6
 
 SOLVING FOR HEAD 
                                                   Max.-Head-Change                         Max.-Flux-Residual
  Residual-Control   Outer-Iter.   Inner-Iter.     Column Row Layer    Maximum-Head-Change  Column Row Layer    Maximum-Flux-Residual          L2-NORM 
          0                 1           2             3    7     1       0.6045749931E-02       3   13    1        -0.2889558247E+00      0.1019294187E+01
          0                 2           2             3    7     1      -0.5880862138E-03       3   13    1         0.2820492054E-01      0.1013969429E+00
          0                 3           1             3    7     1       0.4004654886E-04       3   13    1        -0.1907597613E-02      0.7049435821E-02

    ------------------------------------------------
       NWT REQUIRED            3 OUTER ITERATIONS 
       AND A TOTAL OF          5 INNER ITERATIONS.
    ------------------------------------------------

 NO OUTPUT CONTROL FOR STRESS PERIOD   17   TIME STEP    7
 
 SOLVING FOR HEAD 
                                                   Max.-Head-Change                         Max.-Flux-Residual
  Residual-Control   Outer-Iter.   Inner-Iter.     Column Row Layer    Maximum-Head-Change  Column Row Layer    Maximum-Flux-Residual          L2-NORM 
          0                 1           2             3    7     1       0.5915445113E-02       3   13    1        -0.2577172079E+00      0.9792343720E+00
          0                 2           2             3    7     1      -0.5754111128E-03       3   13    1         0.2515966797E-01      0.9747321622E-01
          0                 3           1             3    7     1       0.3918341717E-04       3   13    1        -0.1703479156E-02      0.6782717151E-02

    ------------------------------------------------
       NWT REQUIRED            3 OUTER ITERATIONS 
       AND A TOTAL OF          5 INNER ITERATIONS.
    ------------------------------------------------

 NO OUTPUT CONTROL FOR STRESS PERIOD   17   TIME STEP    8
 
 SOLVING FOR HEAD 
                                                   Max.-Head-Change                         Max.-Flux-Residual
  Residual-Control   Outer-Iter.   Inner-Iter.     Column Row Layer    Maximum-Head-Change  Column Row Layer    Maximum-Flux-Residual          L2-NORM 
          0                 1           2             3    7     1       0.5787609769E-02       1    1    1         0.2353318678E+00      0.9433998473E+00
          0                 2           2             3    7     1      -0.5629762249E-03       1    1    1        -0.2353322607E-01      0.9396038902E-01
          0                 3           1             3    7     1       0.3833664423E-04       1    1    1         0.1647326167E-02      0.6542545210E-02

    ------------------------------------------------
       NWT REQUIRED            3 OUTER ITERATIONS 
       AND A TOTAL OF          5 INNER ITERATIONS.
    ------------------------------------------------

 NO OUTPUT CONTROL FOR STRESS PERIOD   17   TIME STEP    9
 
 SOLVING FOR HEAD 
                                                   Max.-Head-Change                         Max.-Flux-Residual
  Residual-Control   Outer-Iter.   Inner-Iter.     Column Row Layer    Maximum-Head-Change  Column Row Layer    Maximum-Flux-Residual          L2-NORM 
          0                 1           2             3    7     1       0.5662223568E-02       1    1    1         0.2350803277E+00      0.9112138740E+00
          0                 2           2             3    7     1      -0.5507795736E-03       1    1    1        -0.2350807190E-01      0.9080184350E-01
          0                 3           1             3    7     1       0.3750609488E-04       1    1    1         0.1645565380E-02      0.6327273224E-02

    ------------------------------------------------
       NWT REQUIRED            3 OUTER ITERATIONS 
       AND A TOTAL OF          5 INNER ITERATIONS.
    ------------------------------------------------

 NO OUTPUT CONTROL FOR STRESS PERIOD   17   TIME STEP   10
 
 SOLVING FOR HEAD 
                                                   Max.-Head-Change                         Max.-Flux-Residual
  Residual-Control   Outer-Iter.   Inner-Iter.     Column Row Layer    Maximum-Head-Change  Column Row Layer    Maximum-Flux-Residual          L2-NORM 
          0                 1           2             3    7     1       0.5539510992E-02       1    1    1         0.2348296309E+00      0.8821700238E+00
          0                 2           2             3    7     1      -0.5388429928E-03       1    1    1        -0.2348300206E-01      0.8794799445E-01
          0                 3           1             3    7     1       0.3669325497E-04       1    1    1         0.1643810472E-02      0.6131838940E-02

    ------------------------------------------------
       NWT REQUIRED            3 OUTER ITERATIONS 
       AND A TOTAL OF          5 INNER ITERATIONS.
    ------------------------------------------------

 NO OUTPUT CONTROL FOR STRESS PERIOD   17   TIME STEP   11
 
 SOLVING FOR HEAD 
                                                   Max.-Head-Change                         Max.-Flux-Residual
  Residual-Control   Outer-Iter.   Inner-Iter.     Column Row Layer    Maximum-Head-Change  Column Row Layer    Maximum-Flux-Residual          L2-NORM 
          0                 1           2             3    7     1       0.5418955360E-02       1    1    1         0.2345797741E+00      0.8558366277E+00
          0                 2           2             3    7     1      -0.5271162249E-03       1    1    1        -0.2345801620E-01      0.8535778486E-01
          0                 3           1             3    7     1       0.3589470314E-04       1    1    1         0.1642061481E-02      0.5954646072E-02

    ------------------------------------------------
       NWT REQUIRED            3 OUTER ITERATIONS 
       AND A TOTAL OF          5 INNER ITERATIONS.
    ------------------------------------------------

 NO OUTPUT CONTROL FOR STRESS PERIOD   17   TIME STEP   12
 
 SOLVING FOR HEAD 
                                                   Max.-Head-Change                         Max.-Flux-Residual
  Residual-Control   Outer-Iter.   Inner-Iter.     Column Row Layer    Maximum-Head-Change  Column Row Layer    Maximum-Flux-Residual          L2-NORM 
          0                 1           2             3    7     1       0.5301021515E-02       1    1    1         0.2343295469E+00      0.8318597969E+00
          0                 2           2             3    7     1      -0.5156444852E-03       1    1    1        -0.2343299331E-01      0.8299554261E-01
          0                 3           1             3    7     1       0.3511351768E-04       1    1    1         0.1640309865E-02      0.5792525011E-02

    ------------------------------------------------
       NWT REQUIRED            3 OUTER ITERATIONS 
       AND A TOTAL OF          5 INNER ITERATIONS.
    ------------------------------------------------

 NO OUTPUT CONTROL FOR STRESS PERIOD   17   TIME STEP   13
 
 SOLVING FOR HEAD 
                                                   Max.-Head-Change                         Max.-Flux-Residual
  Residual-Control   Outer-Iter.   Inner-Iter.     Column Row Layer    Maximum-Head-Change  Column Row Layer    Maximum-Flux-Residual          L2-NORM 
          0                 1           2             3    7     1       0.5185432572E-02       1    1    1         0.2340813554E+00      0.8099134379E+00
          0                 2           2             3    7     1      -0.5044008411E-03       1    1    1        -0.2340817400E-01      0.8083218993E-01
          0                 3           1             3    7     1       0.3434786533E-04       1    1    1         0.1638572530E-02      0.5643896831E-02

    ------------------------------------------------
       NWT REQUIRED            3 OUTER ITERATIONS 
       AND A TOTAL OF          5 INNER ITERATIONS.
    ------------------------------------------------

 NO OUTPUT CONTROL FOR STRESS PERIOD   17   TIME STEP   14
 
 SOLVING FOR HEAD 
                                                   Max.-Head-Change                         Max.-Flux-Residual
  Residual-Control   Outer-Iter.   Inner-Iter.     Column Row Layer    Maximum-Head-Change  Column Row Layer    Maximum-Flux-Residual          L2-NORM 
          0                 1           2             3    7     1       0.5072157980E-02       1    1    1         0.2338339901E+00      0.7897483360E+00
          0                 2           2             3    7     1      -0.4933823205E-03       1    1    1        -0.2338343731E-01      0.7884121036E-01
          0                 3           1             3    7     1       0.3359754301E-04       1    1    1         0.1636840956E-02      0.5507020682E-02

    ------------------------------------------------
       NWT REQUIRED            3 OUTER ITERATIONS 
       AND A TOTAL OF          5 INNER ITERATIONS.
    ------------------------------------------------

 NO OUTPUT CONTROL FOR STRESS PERIOD   17   TIME STEP   15
 
 SOLVING FOR HEAD 
                                                   Max.-Head-Change                         Max.-Flux-Residual
  Residual-Control   Outer-Iter.   Inner-Iter.     Column Row Layer    Maximum-Head-Change  Column Row Layer    Maximum-Flux-Residual          L2-NORM 
          0                 1           2             3    7     1       0.4961410705E-02       1    1    1         0.2335862402E+00      0.7711423547E+00
          0                 2           2             3    7     1      -0.4826096392E-03       1    1    1        -0.2335866214E-01      0.7700229138E-01
          0                 3           1             3    7     1       0.3286396155E-04       1    1    1         0.1635106686E-02      0.5379992007E-02

    ------------------------------------------------
       NWT REQUIRED            3 OUTER ITERATIONS 
       AND A TOTAL OF          5 INNER ITERATIONS.
    ------------------------------------------------

 NO OUTPUT CONTROL FOR STRESS PERIOD   17   TIME STEP   16
 
 SOLVING FOR HEAD 
                                                   Max.-Head-Change                         Max.-Flux-Residual
  Residual-Control   Outer-Iter.   Inner-Iter.     Column Row Layer    Maximum-Head-Change  Column Row Layer    Maximum-Flux-Residual          L2-NORM 
          0                 1           2             3    7     1       0.4852904832E-02       1    1    1         0.2333405129E+00      0.7539014746E+00
          0                 2           2             3    7     1      -0.4714435546E-03       1    1    1        -0.2333408928E-01      0.7527973807E-01
          0                 3           1             3    7     1       0.3210357505E-04       1    1    1         0.1633386602E-02      0.5260854027E-02

    ------------------------------------------------
       NWT REQUIRED            3 OUTER ITERATIONS 
       AND A TOTAL OF          5 INNER ITERATIONS.
    ------------------------------------------------

 NO OUTPUT CONTROL FOR STRESS PERIOD   17   TIME STEP   17
 
 SOLVING FOR HEAD 
                                                   Max.-Head-Change                         Max.-Flux-Residual
  Residual-Control   Outer-Iter.   Inner-Iter.     Column Row Layer    Maximum-Head-Change  Column Row Layer    Maximum-Flux-Residual          L2-NORM 
          0                 1           2             3    7     1       0.4756157849E-02       1    1    1         0.2330943932E+00      0.7378691319E+00
          0                 2           2             3    7     1      -0.4626453873E-03       1    1    1        -0.2330947714E-01      0.7370765135E-01
          0                 3           1             3    7     1       0.3150445134E-04       1    1    1         0.1631663755E-02      0.5152249722E-02

    ------------------------------------------------
       NWT REQUIRED            3 OUTER ITERATIONS 
       AND A TOTAL OF          5 INNER ITERATIONS.
    ------------------------------------------------

 NO OUTPUT CONTROL FOR STRESS PERIOD   17   TIME STEP   18
 
 SOLVING FOR HEAD 
                                                   Max.-Head-Change                         Max.-Flux-Residual
  Residual-Control   Outer-Iter.   Inner-Iter.     Column Row Layer    Maximum-Head-Change  Column Row Layer    Maximum-Flux-Residual          L2-NORM 
          0                 1           2             3    7     1       0.4660748681E-02       1    1    1         0.2328502885E+00      0.7229904888E+00
          0                 2           2             3    7     1      -0.4533646399E-03       1    1    1        -0.2328506650E-01      0.7223280987E-01
          0                 3           1             3    7     1       0.3087246625E-04       1    1    1         0.1629955018E-02      0.5050277357E-02

    ------------------------------------------------
       NWT REQUIRED            3 OUTER ITERATIONS 
       AND A TOTAL OF          5 INNER ITERATIONS.
    ------------------------------------------------

 NO OUTPUT CONTROL FOR STRESS PERIOD   17   TIME STEP   19
 
 SOLVING FOR HEAD 
                                                   Max.-Head-Change                         Max.-Flux-Residual
  Residual-Control   Outer-Iter.   Inner-Iter.     Column Row Layer    Maximum-Head-Change  Column Row Layer    Maximum-Flux-Residual          L2-NORM 
          0                 1           2             3    7     1       0.4567038514E-02       1    1    1         0.2326057822E+00      0.7090610723E+00
          0                 2           2             3    7     1      -0.4442491596E-03       1    1    1        -0.2326061572E-01      0.7085025301E-01
          0                 3           1             3    7     1       0.3025173474E-04       1    1    1         0.1628243444E-02      0.4954402147E-02

    ------------------------------------------------
       NWT REQUIRED            3 OUTER ITERATIONS 
       AND A TOTAL OF          5 INNER ITERATIONS.
    ------------------------------------------------

 NO OUTPUT CONTROL FOR STRESS PERIOD   17   TIME STEP   20
 
 SOLVING FOR HEAD 
                                                   Max.-Head-Change                         Max.-Flux-Residual
  Residual-Control   Outer-Iter.   Inner-Iter.     Column Row Layer    Maximum-Head-Change  Column Row Layer    Maximum-Flux-Residual          L2-NORM 
          0                 1           2             1    1     1       0.4476039260E-02       1    1    1         0.2323620773E+00      0.6959846897E+00
          0                 2           2             1    1     1      -0.4353971305E-03       1    1    1        -0.2323624509E-01      0.6955197098E-01
          0                 3           1             1    1     1       0.2964892484E-04       1    1    1         0.1626537498E-02      0.4864733043E-02

    ------------------------------------------------
       NWT REQUIRED            3 OUTER ITERATIONS 
       AND A TOTAL OF          5 INNER ITERATIONS.
    ------------------------------------------------

 NO OUTPUT CONTROL FOR STRESS PERIOD   17   TIME STEP   21
 
 SOLVING FOR HEAD 
                                                   Max.-Head-Change                         Max.-Flux-Residual
  Residual-Control   Outer-Iter.   Inner-Iter.     Column Row Layer    Maximum-Head-Change  Column Row Layer    Maximum-Flux-Residual          L2-NORM 
          0                 1           2             1    1     1       0.4471392778E-02       1    1    1         0.2321203739E+00      0.6836712727E+00
          0                 2           2             1    1     1      -0.4349451522E-03       1    1    1        -0.2321207458E-01      0.6832787815E-01
          0                 3           1             1    1     1       0.2961814690E-04       1    1    1         0.1624845570E-02      0.4779413113E-02

    ------------------------------------------------
       NWT REQUIRED            3 OUTER ITERATIONS 
       AND A TOTAL OF          5 INNER ITERATIONS.
    ------------------------------------------------

 NO OUTPUT CONTROL FOR STRESS PERIOD   17   TIME STEP   22
 
 SOLVING FOR HEAD 
                                                   Max.-Head-Change                         Max.-Flux-Residual
  Residual-Control   Outer-Iter.   Inner-Iter.     Column Row Layer    Maximum-Head-Change  Column Row Layer    Maximum-Flux-Residual          L2-NORM 
          0                 1           2             1    1     1       0.4466738254E-02       1    1    1         0.2318782565E+00      0.6720418303E+00
          0                 2           2             1    1     1      -0.4344923918E-03       1    1    1        -0.2318786269E-01      0.6717098604E-01
          0                 3           1             1    1     1       0.2958731595E-04       1    1    1         0.1623150744E-02      0.4698944118E-02

    ------------------------------------------------
       NWT REQUIRED            3 OUTER ITERATIONS 
       AND A TOTAL OF          5 INNER ITERATIONS.
    ------------------------------------------------

 NO OUTPUT CONTROL FOR STRESS PERIOD   17   TIME STEP   23
 
 SOLVING FOR HEAD 
                                                   Max.-Head-Change                         Max.-Flux-Residual
  Residual-Control   Outer-Iter.   Inner-Iter.     Column Row Layer    Maximum-Head-Change  Column Row Layer    Maximum-Flux-Residual          L2-NORM 
          0                 1           2             1    1     1       0.4462098831E-02       1    1    1         0.2316369277E+00      0.6610429079E+00
          0                 2           2             1    1     1      -0.4340411001E-03       1    1    1        -0.2316372965E-01      0.6607703209E-01
          0                 3           1             1    1     1       0.2955658440E-04       1    1    1         0.1621461432E-02      0.4623642946E-02

    ------------------------------------------------
       NWT REQUIRED            3 OUTER ITERATIONS 
       AND A TOTAL OF          5 INNER ITERATIONS.
    ------------------------------------------------

 NO OUTPUT CONTROL FOR STRESS PERIOD   17   TIME STEP   24
 
 SOLVING FOR HEAD 
                                                   Max.-Head-Change                         Max.-Flux-Residual
  Residual-Control   Outer-Iter.   Inner-Iter.     Column Row Layer    Maximum-Head-Change  Column Row Layer    Maximum-Flux-Residual          L2-NORM 
          0                 1           2             1    1     1       0.4457474475E-02       1    1    1         0.2313963819E+00      0.6506189328E+00
          0                 2           2             1    1     1      -0.4335912740E-03       1    1    1        -0.2313967493E-01      0.6503872594E-01
          0                 3           1             1    1     1       0.2952595296E-04       1    1    1         0.1619777598E-02      0.4550585254E-02

    ------------------------------------------------
       NWT REQUIRED            3 OUTER ITERATIONS 
       AND A TOTAL OF          5 INNER ITERATIONS.
    ------------------------------------------------

 NO OUTPUT CONTROL FOR STRESS PERIOD   17   TIME STEP   25
 
 SOLVING FOR HEAD 
                                                   Max.-Head-Change                         Max.-Flux-Residual
  Residual-Control   Outer-Iter.   Inner-Iter.     Column Row Layer    Maximum-Head-Change  Column Row Layer    Maximum-Flux-Residual          L2-NORM 
          0                 1           2             1    1     1       0.4452888308E-02       1    1    1         0.2311578234E+00      0.6407170558E+00
          0                 2           2             1    1     1      -0.4331451626E-03       1    1    1        -0.2311581893E-01      0.6405188935E-01
          0                 3           1             1    1     1       0.2949557429E-04       1    1    1         0.1618107671E-02      0.4481814303E-02

    ------------------------------------------------
       NWT REQUIRED            3 OUTER ITERATIONS 
       AND A TOTAL OF          5 INNER ITERATIONS.
    ------------------------------------------------

 NO OUTPUT CONTROL FOR STRESS PERIOD   17   TIME STEP   26
 
 SOLVING FOR HEAD 
                                                   Max.-Head-Change                         Max.-Flux-Residual
  Residual-Control   Outer-Iter.   Inner-Iter.     Column Row Layer    Maximum-Head-Change  Column Row Layer    Maximum-Flux-Residual          L2-NORM 
          0                 1           2             1    1     1       0.4448293768E-02       1    1    1         0.2309188327E+00      0.6312981225E+00
          0                 2           2             1    1     1      -0.4326982368E-03       1    1    1        -0.2309191970E-01      0.6311301891E-01
          0                 3           1             1    1     1       0.2946514047E-04       1    1    1         0.1616434738E-02      0.4416398553E-02

    ------------------------------------------------
       NWT REQUIRED            3 OUTER ITERATIONS 
       AND A TOTAL OF          5 INNER ITERATIONS.
    ------------------------------------------------

 NO OUTPUT CONTROL FOR STRESS PERIOD   17   TIME STEP   27
 
 SOLVING FOR HEAD 
                                                   Max.-Head-Change                         Max.-Flux-Residual
  Residual-Control   Outer-Iter.   Inner-Iter.     Column Row Layer    Maximum-Head-Change  Column Row Layer    Maximum-Flux-Residual          L2-NORM 
          0                 1           2             1    1     1       0.4443714055E-02       1    1    1         0.2306806140E+00      0.6223281084E+00
          0                 2           2             1    1     1      -0.4322527534E-03       1    1    1        -0.2306809769E-01      0.6221862120E-01
          0                 3           1             1    1     1       0.2943480464E-04       1    1    1         0.1614767187E-02      0.4354014225E-02

    ------------------------------------------------
       NWT REQUIRED            3 OUTER ITERATIONS 
       AND A TOTAL OF          5 INNER ITERATIONS.
    ------------------------------------------------

 NO OUTPUT CONTROL FOR STRESS PERIOD   17   TIME STEP   28
 
 SOLVING FOR HEAD 
                                                   Max.-Head-Change                         Max.-Flux-Residual
  Residual-Control   Outer-Iter.   Inner-Iter.     Column Row Layer    Maximum-Head-Change  Column Row Layer    Maximum-Flux-Residual          L2-NORM 
          0                 1           2             1    1     1       0.4439149075E-02       1    1    1         0.2304431641E+00      0.6137604496E+00
          0                 2           2             1    1     1      -0.4318087032E-03       1    1    1        -0.2304435255E-01      0.6136399705E-01
          0                 3           1             1    1     1       0.2940456655E-04       1    1    1         0.1613105032E-02      0.4294373737E-02

    ------------------------------------------------
       NWT REQUIRED            3 OUTER ITERATIONS 
       AND A TOTAL OF          5 INNER ITERATIONS.
    ------------------------------------------------

 NO OUTPUT CONTROL FOR STRESS PERIOD   17   TIME STEP   29
 
 SOLVING FOR HEAD 
                                                   Max.-Head-Change                         Max.-Flux-Residual
  Residual-Control   Outer-Iter.   Inner-Iter.     Column Row Layer    Maximum-Head-Change  Column Row Layer    Maximum-Flux-Residual          L2-NORM 
          0                 1           2             1    1     1       0.3856085476E-02       4   13    1        -0.2139528057E+00      0.6907695808E+00
          0                 2           2             1    1     1      -0.3750923401E-03       4   13    1         0.2117942316E-01      0.6845968187E-01
          0                 3           1             1    1     1       0.2554239413E-04       4   13    1        -0.1461027763E-02      0.4734955843E-02

    ------------------------------------------------
       NWT REQUIRED            3 OUTER ITERATIONS 
       AND A TOTAL OF          5 INNER ITERATIONS.
    ------------------------------------------------

 NO OUTPUT CONTROL FOR STRESS PERIOD   17   TIME STEP   30



 STREAM LISTING     PERIOD     17   STEP       30

 LAYER ROW COL. STREAM  RCH.  FLOW INTO     FLOW TO   FLOW OUT OF   OVRLND.     DIRECT     STREAM       STREAM     STREAM     STREAM   STREAMBED  STREAMBED
                SEG.NO.  NO.  STRM. RCH.    AQUIFER    STRM. RCH.    RUNOFF     PRECIP       ET          HEAD       DEPTH      WIDTH   CONDCTNC.   GRADIENT

   1    1    1     1     1    6.5908E+01  3.9227E-01   6.5516E+01  0.000E+00  0.000E+00  0.000E+00  1.09464E+03  1.596E+00  1.897E+01  8.536E-02  1.532E+00
   1    2    2     1     2    6.5516E+01  6.0756E-01   6.4909E+01  0.000E+00  0.000E+00  0.000E+00  1.08965E+03  1.590E+00  1.891E+01  1.324E-01  1.530E+00
   1    3    3     1     3    6.4909E+01  5.1821E-01   6.4390E+01  0.000E+00  0.000E+00  0.000E+00  1.08400E+03  1.583E+00  1.884E+01  1.131E-01  1.528E+00
   1    3    4     1     4    6.4390E+01  4.7725E-01   6.3913E+01  0.000E+00  0.000E+00  0.000E+00  1.07899E+03  1.577E+00  1.879E+01  1.043E-01  1.526E+00
   1    4    5     2     1    6.1913E+01  3.9598E-01   6.1517E+01  0.000E+00  0.000E+00  0.000E+00  1.07401E+03  2.077E+00  1.200E+01  7.800E-02  1.692E+00
   1    5    6     2     2    6.1517E+01  3.0418E-01   6.1213E+01  0.000E+00  0.000E+00  0.000E+00  1.06858E+03  2.070E+00  1.200E+01  6.000E-02  1.690E+00
   1    6    6     2     3    6.1213E+01  3.0381E-01   6.0909E+01  0.000E+00  0.000E+00  0.000E+00  1.06386E+03  2.063E+00  1.200E+01  6.000E-02  1.688E+00
   1    7    6     2     4    6.0909E+01  3.0344E-01   6.0606E+01  0.000E+00  0.000E+00  0.000E+00  1.05913E+03  2.057E+00  1.200E+01  6.000E-02  1.686E+00
   1    8    6     2     5    6.0606E+01  3.0307E-01   6.0303E+01  0.000E+00  0.000E+00  0.000E+00  1.05441E+03  2.051E+00  1.200E+01  6.000E-02  1.684E+00
   1    3    5     3     1    2.0000E+00  2.8252E-01   1.7175E+00  0.000E+00  0.000E+00  0.000E+00  1.07555E+03  1.909E+00  9.636E+00  7.227E-02  1.955E+00
   1    3    6     3     2    1.7175E+00  2.4905E-01   1.4684E+00  0.000E+00  0.000E+00  0.000E+00  1.07264E+03  1.727E+00  8.909E+00  6.682E-02  1.864E+00
   1    3    7     3     3    1.4684E+00  1.9718E-01   1.2712E+00  0.000E+00  0.000E+00  0.000E+00  1.06987E+03  1.555E+00  8.218E+00  5.547E-02  1.777E+00
   1    4    8     3     4    1.2712E+00  2.2567E-01   1.0456E+00  0.000E+00  0.000E+00  0.000E+00  1.06682E+03  1.364E+00  7.455E+00  6.709E-02  1.682E+00
   1    5    8     3     5    1.0456E+00  1.5790E-01   8.8768E-01  0.000E+00  0.000E+00  0.000E+00  1.06362E+03  1.164E+00  6.655E+00  4.991E-02  1.582E+00
   1    6    8     3     6    8.8768E-01  5.5980E-02   8.3170E-01  0.000E+00  0.000E+00  0.000E+00  1.06158E+03  1.036E+00  6.145E+00  1.844E-02  1.518E+00
   1    5   10     4     1    1.0000E+01  9.0919E-02   9.9091E+00  0.000E+00  0.000E+00  0.000E+00  1.07836E+03  6.368E-01  1.000E+01  2.500E-02  1.212E+00
   1    5    9     4     2    9.9091E+00  1.8158E-01   9.7275E+00  0.000E+00  0.000E+00  0.000E+00  1.07154E+03  6.315E-01  1.000E+01  5.000E-02  1.211E+00
   1    6    8     4     3    9.7275E+00  1.2689E-01   9.6006E+00  0.000E+00  0.000E+00  0.000E+00  1.06381E+03  6.256E-01  1.000E+01  3.500E-02  1.209E+00
   1    6    8     5     1    1.0432E+01  2.2686E-01   1.0205E+01  0.000E+00  0.000E+00  0.000E+00  1.05868E+03  6.790E-01  1.542E+01  6.166E-02  1.226E+00
   1    7    7     5     2    1.0205E+01  2.7894E-01   9.9265E+00  0.000E+00  0.000E+00  0.000E+00  1.05417E+03  6.732E-01  1.519E+01  7.594E-02  1.224E+00
   1    8    7     5     3    9.9265E+00  1.9221E-01   9.7343E+00  0.000E+00  0.000E+00  0.000E+00  1.04992E+03  6.676E-01  1.497E+01  5.241E-02  1.223E+00
   1    8    6     5     4    9.7343E+00  1.3577E-01   9.5985E+00  0.000E+00  0.000E+00  0.000E+00  1.04691E+03  6.637E-01  1.482E+01  3.706E-02  1.221E+00
   1    9    6     6     1    6.9901E+01  3.1559E-01   6.9586E+01  0.000E+00  0.000E+00  0.000E+00  1.04499E+03  2.260E+00  1.200E+01  6.000E-02  1.753E+00
   1   10    7     6     2    6.9586E+01  3.1522E-01   6.9270E+01  0.000E+00  0.000E+00  0.000E+00  1.04044E+03  2.254E+00  1.200E+01  6.000E-02  1.751E+00
   1   11    7     6     3    6.9270E+01  3.1485E-01   6.8955E+01  0.000E+00  0.000E+00  0.000E+00  1.03588E+03  2.248E+00  1.200E+01  6.000E-02  1.749E+00
   1   12    7     6     4    6.8955E+01  3.1448E-01   6.8641E+01  0.000E+00  0.000E+00  0.000E+00  1.03133E+03  2.241E+00  1.200E+01  6.000E-02  1.747E+00
   1   13    7     6     5    6.8641E+01  2.4921E-02   6.8616E+01  0.000E+00  0.000E+00  0.000E+00  1.02815E+03  2.238E+00  1.200E+01  2.400E-02  3.461E-01
   1   14    9     7     1    1.5000E+02  1.3306E+00   1.4867E+02  0.000E+00  0.000E+00  0.000E+00  1.03987E+03  2.288E+00  5.529E+01  5.593E-01  7.930E-01
   1   13    8     7     2    1.4867E+02  1.8222E+00   1.4685E+02  0.000E+00  0.000E+00  0.000E+00  1.03478E+03  2.279E+00  5.526E+01  6.148E-01  9.880E-01
   1   13    7     7     3    1.4685E+02  1.4415E+00   1.4541E+02  0.000E+00  0.000E+00  0.000E+00  1.02969E+03  2.271E+00  5.522E+01  5.585E-01  8.604E-01
   1   13    6     8     1    2.1402E+02  1.0674E+00   2.1295E+02  0.000E+00  0.000E+00  0.000E+00  1.02509E+03  3.215E+00  4.662E+01  4.751E-01  7.489E-01
   1   13    5     8     2    2.1295E+02  2.5520E-01   2.1270E+02  0.000E+00  0.000E+00  0.000E+00  1.01884E+03  3.212E+00  4.657E+01  4.746E-01  1.793E-01
   1   13    4     8     3    2.1270E+02 -2.3201E+00   2.1502E+02  0.000E+00  0.000E+00  0.000E+00  1.01259E+03  3.218E+00  4.665E+01  4.754E+00 -1.627E-01
   1   13    3     8     4    2.1502E+02 -3.6147E+00   2.1863E+02  0.000E+00  0.000E+00  0.000E+00  1.00636E+03  3.234E+00  4.690E+01  4.779E+00 -2.521E-01
   1   13    2     8     5    2.1863E+02 -2.7123E+00   2.2135E+02  0.000E+00  0.000E+00  0.000E+00  1.00013E+03  3.252E+00  4.715E+01  4.805E+00 -1.882E-01
   1   13    1     8     6    2.2135E+02 -2.0832E+00   2.2343E+02  0.000E+00  0.000E+00  0.000E+00  9.95140E+02  3.265E+00  4.734E+01  2.895E+00 -2.399E-01





UNSATURATED ZONE PACKAGE VOLUMETRIC BUDGET FOR  TIME STEP    30 STRESS PERIOD   17
  ------------------------------------------------------------------------------



     CUMULATIVE VOLUMES      L**3       RATES FOR THIS TIME STEP      L**3/T
     ------------------                 ------------------------

           IN:                                      IN:
           ---                                      ---
        INFILTRATION =   521797582.2708          INFILTRATION =           4.5675

          OUT:                                     OUT:
          ----                                     ----
              UZF ET =   449334542.1241                UZF ET =           4.5675
        UZF RECHARGE =    72392846.7693          UZF RECHARGE =       0.0000E+00

            IN - OUT =       70193.3774              IN - OUT =       0.0000E+00

          STORAGE:                                 STORAGE:
          --------                                 --------
      STORAGE CHANGE =       70199.5624        STORAGE CHANGE =       8.5036E-15

 PERCENT DISCREPANCY IS DIFFERENCE BETWEEN IN-OUT MINUS CHANGE IN STORAGE
 DIVIDED BY THE AVERAGE OF IN AND OUT TIMES 100

 PERCENT DISCREPANCY =          -0.00     PERCENT DISCREPANCY =           0.00






1
  VOLUMETRIC BUDGET FOR AGRICULTURAL FIELDS AT  END OF TIME STEP   30, STRESS PERIOD  17
  ------------------------------------------------------------------------------

     CUMULATIVE VOLUMES      L**3       RATES FOR THIS TIME STEP      L**3/T
     ------------------                 ------------------------

           IN:                                      IN:
           ---                                      ---
               AG WELLS  =   486060672.0000                 AG WELLS  =           3.7200
      DIVERSION SEGMENTS =           0.0000        DIVERSION SEGMENTS =           0.0000
           GW IRRIGATION =           0.0000             GW IRRIGATION =           0.0000
           SW IRRIGATION =           0.0000             SW IRRIGATION =           0.0000
        SYSTEM LOSSES GW =           0.0000          SYSTEM LOSSES GW =           0.0000
        SYSTEM LOSSES SW =           0.0000          SYSTEM LOSSES SW =           0.0000

                TOTAL IN =   486060672.0000                  TOTAL IN =           3.7200

          OUT:                                     OUT:
          ----                                     ----
               AG WELLS  =           0.0000                 AG WELLS  =           0.0000
      DIVERSION SEGMENTS =           0.0000        DIVERSION SEGMENTS =           0.0000
           GW IRRIGATION =   486060672.0000             GW IRRIGATION =           3.7200
           SW IRRIGATION =           0.0000             SW IRRIGATION =           0.0000
        SYSTEM LOSSES GW =           0.0000          SYSTEM LOSSES GW =           0.0000
        SYSTEM LOSSES SW =           0.0000          SYSTEM LOSSES SW =           0.0000

               TOTAL OUT =   486060672.0000                 TOTAL OUT =           3.7200

                IN - OUT =           0.0000                  IN - OUT =           0.0000

     PERCENT DISCREPANCY =           0.00         PERCENT DISCREPANCY =           0.00



1
  VOLUMETRIC BUDGET FOR ENTIRE MODEL AT END OF TIME STEP   30, STRESS PERIOD  17
  ------------------------------------------------------------------------------

     CUMULATIVE VOLUMES      L**3       RATES FOR THIS TIME STEP      L**3/T
     ------------------                 ------------------------

           IN:                                      IN:
           ---                                      ---
             STORAGE     =   643098816.0000               STORAGE     =           3.4479
       CONSTANT HEAD     =           0.0000         CONSTANT HEAD     =           0.0000
     HEAD DEP BOUNDS     =    12034783.0000       HEAD DEP BOUNDS     =           0.2854
      STREAM LEAKAGE     =   527624000.0000        STREAM LEAKAGE     =          13.2092
        UZF RECHARGE     =    72392816.0000          UZF RECHARGE     =           0.0000
               GW ET     =           0.0000                 GW ET     =           0.0000
     SURFACE LEAKAGE     =           0.0000       SURFACE LEAKAGE     =           0.0000
           AG WELLS      =           0.0000             AG WELLS      =           0.0000

                TOTAL IN =  1255150464.0000                  TOTAL IN =          16.9425

          OUT:                                     OUT:
          ----                                     ----
             STORAGE     =   308046944.0000               STORAGE     =           1.9498
       CONSTANT HEAD     =           0.0000         CONSTANT HEAD     =           0.0000
     HEAD DEP BOUNDS     =    12416436.0000       HEAD DEP BOUNDS     =           0.2987
      STREAM LEAKAGE     =   434097152.0000        STREAM LEAKAGE     =          10.7303
        UZF RECHARGE     =           0.0000          UZF RECHARGE     =           0.0000
               GW ET     =    14536555.0000                 GW ET     =           0.2433
     SURFACE LEAKAGE     =           0.0000       SURFACE LEAKAGE     =           0.0000
           AG WELLS      =   486060672.0000             AG WELLS      =           3.7200

               TOTAL OUT =  1255157760.0000                 TOTAL OUT =          16.9421

                IN - OUT =       -7296.0000                  IN - OUT =       4.3488E-04

     PERCENT DISCREPANCY =          -0.00         PERCENT DISCREPANCY =           0.00






         TIME SUMMARY AT END OF TIME STEP   30 IN STRESS PERIOD   17
                    SECONDS     MINUTES      HOURS       DAYS        YEARS
                    -----------------------------------------------------------
   TIME STEP LENGTH  87667.      1461.1      24.352      1.0147     2.77799E-03
 STRESS PERIOD TIME 2.63000E+06  43833.      730.56      30.440     8.33397E-02
         TOTAL TIME 4.21664E+07 7.02774E+05  11713.      488.04      1.3362    
1
1
                            STRESS PERIOD NO.   18, LENGTH =   2630000.    
                            -----------------------------------------------

                              NUMBER OF TIME STEPS =    30

                               MULTIPLIER FOR DELT =     1.000

                            INITIAL TIME STEP SIZE =   87666.66    

 REUSING NON-PARAMETER GHB CELLS FROM LAST STRESS PERIOD

      2 GHB CELLS

 REUSING STREAM SEGMENT DATA FROM LAST STRESS PERIOD



            AREAL INFILTRATION RATE
 READING ON UNIT   19 WITH FORMAT: (FREE)              

            1           2           3           4           5           6           7           8           9          10
 ........................................................................................................................
   1   1.0000E-10  2.0000E-10   0.000       0.000       0.000       0.000       0.000       0.000       0.000       0.000    
   2   2.0000E-10  1.0000E-10  2.0000E-10   0.000       0.000      8.0000E-10  8.0000E-10  5.0000E-10   0.000       0.000    
   3    0.000      5.0000E-10  1.0000E-10  1.0000E-10  8.0000E-10  8.0000E-10  5.0000E-10  5.0000E-10   0.000       0.000    
   4   8.0000E-10  5.0000E-10  1.0000E-10  1.0000E-10  1.0000E-10  1.0000E-10  1.0000E-10  1.0000E-10  2.0000E-10   0.000    
   5   8.0000E-10  5.0000E-10  1.0000E-10  1.0000E-10  1.0000E-10  1.0000E-10  1.0000E-10  1.0000E-10  1.0000E-10  1.0000E-10
   6   8.0000E-10  5.0000E-10  5.0000E-10  2.0000E-10  2.0000E-10  1.0000E-10  1.0000E-10  1.0000E-10  1.0000E-10  5.0000E-10
   7   8.0000E-10  5.0000E-10  5.0000E-10  2.0000E-10  2.0000E-10  1.0000E-10  1.0000E-10  2.0000E-10  2.0000E-10   0.000    
   8    0.000      5.0000E-10  5.0000E-10  2.0000E-10  2.0000E-10  1.0000E-10  1.0000E-10  2.0000E-10  5.0000E-10   0.000    
   9    0.000      5.0000E-10  5.0000E-10  2.0000E-10  2.0000E-10  1.0000E-10  1.0000E-10  2.0000E-10  5.0000E-10   0.000    
  10    0.000      5.0000E-10  5.0000E-10  2.0000E-10  2.0000E-10  1.0000E-10  1.0000E-10  2.0000E-10  5.0000E-10  8.0000E-10
  11    0.000      1.0000E-10  1.0000E-10  1.0000E-10  1.0000E-10  1.0000E-10  1.0000E-10  2.0000E-10  5.0000E-10   0.000    
  12   1.0000E-10  1.0000E-10  1.0000E-10  1.0000E-10  1.0000E-10  1.0000E-10  1.0000E-10  1.0000E-10  2.0000E-10   0.000    
  13   1.0000E-10  1.0000E-10  2.0000E-10  2.0000E-10  2.0000E-10  2.0000E-10  2.0000E-10  1.0000E-10  1.0000E-10   0.000    
  14    0.000      2.0000E-10  5.0000E-10  5.0000E-10  5.0000E-10  5.0000E-10  5.0000E-10  2.0000E-10  1.0000E-10   0.000    
  15    0.000       0.000      8.0000E-10  8.0000E-10  8.0000E-10  8.0000E-10   0.000       0.000       0.000       0.000    

                  ET RATE =  5.000000E-08

 USING ET EXTINCTION DEPTH FROM PREVIOUS STRESS PERIOD. CURRENT PERIOD IS:      18

 USING EXTINCTION WATER CONTENT FROM PREVIOUS STRESS PERIOD. CURRENT PERIOD IS:      18

 USING AIR ENTRY PRESSURE FROM PREVIOUS STRESS PERIOD. CURRENT PERIOD IS:      18

 USING ROOT PRESSURE HEAD FROM PREVIOUS STRESS PERIOD. CURRENT PERIOD IS:      18

 USING ROOT ACTIVITY FROM PREVIOUS STRESS PERIOD. CURRENT PERIOD IS:      18

 PROCESSING AG STRESS PERIOD DATA

 READING AG STRESS PERIOD DATA

 READING IRRIGATION WELL

 END PROCESSING AG STRESS PERIOD DATA OPTIONS
 
 SOLVING FOR HEAD 
                                                   Max.-Head-Change                         Max.-Flux-Residual
  Residual-Control   Outer-Iter.   Inner-Iter.     Column Row Layer    Maximum-Head-Change  Column Row Layer    Maximum-Flux-Residual          L2-NORM 
          0                 1           2             4    7     1      -0.1437944945E-01       4    7    1        -0.7530310122E+00      0.1926321697E+01
          0                 2           2             4    7     1       0.1398727003E-02       4    7    1         0.7530302126E-01      0.1921281496E+00
          0                 3           1             4    7     1      -0.9524813613E-04       4    7    1        -0.5271214520E-02      0.1340307549E-01

    ------------------------------------------------
       NWT REQUIRED            3 OUTER ITERATIONS 
       AND A TOTAL OF          5 INNER ITERATIONS.
    ------------------------------------------------

 NO OUTPUT CONTROL FOR STRESS PERIOD   18   TIME STEP    1
 
 SOLVING FOR HEAD 
                                                   Max.-Head-Change                         Max.-Flux-Residual
  Residual-Control   Outer-Iter.   Inner-Iter.     Column Row Layer    Maximum-Head-Change  Column Row Layer    Maximum-Flux-Residual          L2-NORM 
          0                 1           2             4    7     1      -0.1426115920E-01       4    7    1        -0.7471397720E+00      0.1870933591E+01
          0                 2           2             4    7     1       0.1387220418E-02       4    7    1         0.7471388538E-01      0.1866775269E+00
          0                 3           1             4    7     1      -0.9446458217E-04       4    7    1        -0.5229975111E-02      0.1303000103E-01

    ------------------------------------------------
       NWT REQUIRED            3 OUTER ITERATIONS 
       AND A TOTAL OF          5 INNER ITERATIONS.
    ------------------------------------------------

 NO OUTPUT CONTROL FOR STRESS PERIOD   18   TIME STEP    2
 
 SOLVING FOR HEAD 
                                                   Max.-Head-Change                         Max.-Flux-Residual
  Residual-Control   Outer-Iter.   Inner-Iter.     Column Row Layer    Maximum-Head-Change  Column Row Layer    Maximum-Flux-Residual          L2-NORM 
          0                 1           2             4    7     1      -0.1413857903E-01       4    7    1        -0.7409990260E+00      0.1820862184E+01
          0                 2           2             4    7     1       0.1375296560E-02       4    7    1         0.7409980025E-01      0.1817422019E+00
          0                 3           1             4    7     1      -0.9365261309E-04       4    7    1        -0.5186989244E-02      0.1269065596E-01

    ------------------------------------------------
       NWT REQUIRED            3 OUTER ITERATIONS 
       AND A TOTAL OF          5 INNER ITERATIONS.
    ------------------------------------------------

 NO OUTPUT CONTROL FOR STRESS PERIOD   18   TIME STEP    3
 
 SOLVING FOR HEAD 
                                                   Max.-Head-Change                         Max.-Flux-Residual
  Residual-Control   Outer-Iter.   Inner-Iter.     Column Row Layer    Maximum-Head-Change  Column Row Layer    Maximum-Flux-Residual          L2-NORM 
          0                 1           2             4    7     1      -0.1401192276E-01       4    7    1        -0.7346211163E+00      0.1775236759E+01
          0                 2           2             4    7     1       0.1362976227E-02       4    7    1         0.7346200002E-01      0.1772388922E+00
          0                 3           1             4    7     1      -0.9281364516E-04       4    7    1        -0.5142343268E-02      0.1238070725E-01

    ------------------------------------------------
       NWT REQUIRED            3 OUTER ITERATIONS 
       AND A TOTAL OF          5 INNER ITERATIONS.
    ------------------------------------------------

 NO OUTPUT CONTROL FOR STRESS PERIOD   18   TIME STEP    4
 
 SOLVING FOR HEAD 
                                                   Max.-Head-Change                         Max.-Flux-Residual
  Residual-Control   Outer-Iter.   Inner-Iter.     Column Row Layer    Maximum-Head-Change  Column Row Layer    Maximum-Flux-Residual          L2-NORM 
          0                 1           2             4    7     1      -0.1388193716E-01       4    7    1        -0.7280466131E+00      0.1733391157E+01
          0                 2           2             4    7     1       0.1350279128E-02       4    7    1         0.7280454160E-01      0.1729949368E+00
          0                 3           1             4    7     1      -0.9194902149E-04       4    7    1        -0.5096321274E-02      0.1208821361E-01

    ------------------------------------------------
       NWT REQUIRED            3 OUTER ITERATIONS 
       AND A TOTAL OF          5 INNER ITERATIONS.
    ------------------------------------------------

 NO OUTPUT CONTROL FOR STRESS PERIOD   18   TIME STEP    5
 
 SOLVING FOR HEAD 
                                                   Max.-Head-Change                         Max.-Flux-Residual
  Residual-Control   Outer-Iter.   Inner-Iter.     Column Row Layer    Maximum-Head-Change  Column Row Layer    Maximum-Flux-Residual          L2-NORM 
          0                 1           2             4    7     1      -0.1374913612E-01       4    7    1        -0.7212949364E+00      0.1694839027E+01
          0                 2           2             4    7     1       0.1337414072E-02       4    7    1         0.7212936720E-01      0.1692883322E+00
          0                 3           1             4    7     1      -0.9107295940E-04       4    7    1        -0.5049059080E-02      0.1183268035E-01

    ------------------------------------------------
       NWT REQUIRED            3 OUTER ITERATIONS 
       AND A TOTAL OF          5 INNER ITERATIONS.
    ------------------------------------------------

 NO OUTPUT CONTROL FOR STRESS PERIOD   18   TIME STEP    6
 
 SOLVING FOR HEAD 
                                                   Max.-Head-Change                         Max.-Flux-Residual
  Residual-Control   Outer-Iter.   Inner-Iter.     Column Row Layer    Maximum-Head-Change  Column Row Layer    Maximum-Flux-Residual          L2-NORM 
          0                 1           2             4    7     1      -0.1361374695E-01       4    7    1        -0.7143916618E+00      0.1659128926E+01
          0                 2           2             4    7     1       0.1324244314E-02       4    7    1         0.7143903382E-01      0.1657505421E+00
          0                 3           1             4    7     1      -0.9017614852E-04       4    7    1        -0.5000735777E-02      0.1158770476E-01

    ------------------------------------------------
       NWT REQUIRED            3 OUTER ITERATIONS 
       AND A TOTAL OF          5 INNER ITERATIONS.
    ------------------------------------------------

 NO OUTPUT CONTROL FOR STRESS PERIOD   18   TIME STEP    7
 
 SOLVING FOR HEAD 
                                                   Max.-Head-Change                         Max.-Flux-Residual
  Residual-Control   Outer-Iter.   Inner-Iter.     Column Row Layer    Maximum-Head-Change  Column Row Layer    Maximum-Flux-Residual          L2-NORM 
          0                 1           2             4    7     1      -0.1347619513E-01       4    7    1        -0.7073570152E+00      0.1625795284E+01
          0                 2           2             4    7     1       0.1310864202E-02       4    7    1         0.7073556414E-01      0.1624442049E+00
          0                 3           1             4    7     1      -0.8926501346E-04       4    7    1        -0.4951492937E-02      0.1135868321E-01

    ------------------------------------------------
       NWT REQUIRED            3 OUTER ITERATIONS 
       AND A TOTAL OF          5 INNER ITERATIONS.
    ------------------------------------------------

 NO OUTPUT CONTROL FOR STRESS PERIOD   18   TIME STEP    8
 
 SOLVING FOR HEAD 
                                                   Max.-Head-Change                         Max.-Flux-Residual
  Residual-Control   Outer-Iter.   Inner-Iter.     Column Row Layer    Maximum-Head-Change  Column Row Layer    Maximum-Flux-Residual          L2-NORM 
          0                 1           2             4    7     1      -0.1333668920E-01       4    7    1        -0.7002028734E+00      0.1594518778E+01
          0                 2           2             4    7     1       0.1297294020E-02       4    7    1         0.7002014573E-01      0.1593390572E+00
          0                 3           1             4    7     1      -0.8834093498E-04       4    7    1        -0.4901413663E-02      0.1114356557E-01

    ------------------------------------------------
       NWT REQUIRED            3 OUTER ITERATIONS 
       AND A TOTAL OF          5 INNER ITERATIONS.
    ------------------------------------------------

 NO OUTPUT CONTROL FOR STRESS PERIOD   18   TIME STEP    9
 
 SOLVING FOR HEAD 
                                                   Max.-Head-Change                         Max.-Flux-Residual
  Residual-Control   Outer-Iter.   Inner-Iter.     Column Row Layer    Maximum-Head-Change  Column Row Layer    Maximum-Flux-Residual          L2-NORM 
          0                 1           2             4    7     1      -0.1319582319E-01       4    7    1        -0.6929621575E+00      0.1565055422E+01
          0                 2           2             4    7     1       0.1283591549E-02       4    7    1         0.6929607062E-01      0.1564109127E+00
          0                 3           1             4    7     1      -0.8740784776E-04       4    7    1        -0.4850728399E-02      0.1094001460E-01

    ------------------------------------------------
       NWT REQUIRED            3 OUTER ITERATIONS 
       AND A TOTAL OF          5 INNER ITERATIONS.
    ------------------------------------------------

 NO OUTPUT CONTROL FOR STRESS PERIOD   18   TIME STEP   10
 
 SOLVING FOR HEAD 
                                                   Max.-Head-Change                         Max.-Flux-Residual
  Residual-Control   Outer-Iter.   Inner-Iter.     Column Row Layer    Maximum-Head-Change  Column Row Layer    Maximum-Flux-Residual          L2-NORM 
          0                 1           2             4    7     1      -0.1305374687E-01       4    7    1        -0.6856435577E+00      0.1537186031E+01
          0                 2           2             4    7     1       0.1269771358E-02       4    7    1         0.6856420778E-01      0.1536395237E+00
          0                 3           1             4    7     1      -0.8646674466E-04       4    7    1        -0.4799498015E-02      0.1074762454E-01

    ------------------------------------------------
       NWT REQUIRED            3 OUTER ITERATIONS 
       AND A TOTAL OF          5 INNER ITERATIONS.
    ------------------------------------------------

 NO OUTPUT CONTROL FOR STRESS PERIOD   18   TIME STEP   11
 
 SOLVING FOR HEAD 
                                                   Max.-Head-Change                         Max.-Flux-Residual
  Residual-Control   Outer-Iter.   Inner-Iter.     Column Row Layer    Maximum-Head-Change  Column Row Layer    Maximum-Flux-Residual          L2-NORM 
          0                 1           2             4    7     1      -0.1291061050E-01       4    7    1        -0.6782548405E+00      0.1510752671E+01
          0                 2           2             4    7     1       0.1255848062E-02       4    7    1         0.6782533384E-01      0.1510086466E+00
          0                 3           1             4    7     1      -0.8551862041E-04       4    7    1        -0.4747776855E-02      0.1056463414E-01

    ------------------------------------------------
       NWT REQUIRED            3 OUTER ITERATIONS 
       AND A TOTAL OF          5 INNER ITERATIONS.
    ------------------------------------------------

 NO OUTPUT CONTROL FOR STRESS PERIOD   18   TIME STEP   12
 
 SOLVING FOR HEAD 
                                                   Max.-Head-Change                         Max.-Flux-Residual
  Residual-Control   Outer-Iter.   Inner-Iter.     Column Row Layer    Maximum-Head-Change  Column Row Layer    Maximum-Flux-Residual          L2-NORM 
          0                 1           2             4    7     1      -0.1276680832E-01       4    7    1        -0.6708185343E+00      0.1485605623E+01
          0                 2           2             4    7     1       0.1241860008E-02       4    7    1         0.6708170152E-01      0.1485043463E+00
          0                 3           1             4    7     1      -0.8456608611E-04       4    7    1        -0.4695722575E-02      0.1039016101E-01

    ------------------------------------------------
       NWT REQUIRED            3 OUTER ITERATIONS 
       AND A TOTAL OF          5 INNER ITERATIONS.
    ------------------------------------------------

 NO OUTPUT CONTROL FOR STRESS PERIOD   18   TIME STEP   13
 
 SOLVING FOR HEAD 
                                                   Max.-Head-Change                         Max.-Flux-Residual
  Residual-Control   Outer-Iter.   Inner-Iter.     Column Row Layer    Maximum-Head-Change  Column Row Layer    Maximum-Flux-Residual          L2-NORM 
          0                 1           2             4    7     1      -0.1262271028E-01       4    7    1        -0.6633550802E+00      0.1461622297E+01
          0                 2           2             4    7     1       0.1227843183E-02       4    7    1         0.6633535489E-01      0.1461148331E+00
          0                 3           1             4    7     1      -0.8361159215E-04       4    7    1        -0.4643478285E-02      0.1022368687E-01

    ------------------------------------------------
       NWT REQUIRED            3 OUTER ITERATIONS 
       AND A TOTAL OF          5 INNER ITERATIONS.
    ------------------------------------------------

 NO OUTPUT CONTROL FOR STRESS PERIOD   18   TIME STEP   14
 
 SOLVING FOR HEAD 
                                                   Max.-Head-Change                         Max.-Flux-Residual
  Residual-Control   Outer-Iter.   Inner-Iter.     Column Row Layer    Maximum-Head-Change  Column Row Layer    Maximum-Flux-Residual          L2-NORM 
          0                 1           2             4    7     1      -0.1247826221E-01       4    7    1        -0.6558615528E+00      0.1438696684E+01
          0                 2           2             4    7     1       0.1213792316E-02       4    7    1         0.6558600139E-01      0.1438294445E+00
          0                 3           1             4    7     1      -0.8265478057E-04       4    7    1        -0.4591023544E-02      0.1006434120E-01

    ------------------------------------------------
       NWT REQUIRED            3 OUTER ITERATIONS 
       AND A TOTAL OF          5 INNER ITERATIONS.
    ------------------------------------------------

 NO OUTPUT CONTROL FOR STRESS PERIOD   18   TIME STEP   15
 
 SOLVING FOR HEAD 
                                                   Max.-Head-Change                         Max.-Flux-Residual
  Residual-Control   Outer-Iter.   Inner-Iter.     Column Row Layer    Maximum-Head-Change  Column Row Layer    Maximum-Flux-Residual          L2-NORM 
          0                 1           2             4    7     1      -0.1233380324E-01       4    7    1        -0.6483572491E+00      0.1416744151E+01
          0                 2           2             4    7     1       0.1199740394E-02       4    7    1         0.6483557068E-01      0.1416402406E+00
          0                 3           1             4    7     1      -0.8169789681E-04       4    7    1        -0.4538493362E-02      0.9911717143E-02

    ------------------------------------------------
       NWT REQUIRED            3 OUTER ITERATIONS 
       AND A TOTAL OF          5 INNER ITERATIONS.
    ------------------------------------------------

 NO OUTPUT CONTROL FOR STRESS PERIOD   18   TIME STEP   16
 
 SOLVING FOR HEAD 
                                                   Max.-Head-Change                         Max.-Flux-Residual
  Residual-Control   Outer-Iter.   Inner-Iter.     Column Row Layer    Maximum-Head-Change  Column Row Layer    Maximum-Flux-Residual          L2-NORM 
          0                 1           2             4    7     1      -0.1218938940E-01       4    7    1        -0.6408450163E+00      0.1395692910E+01
          0                 2           2             4    7     1       0.1185692869E-02       4    7    1         0.6408434743E-01      0.1395385539E+00
          0                 3           1             4    7     1      -0.8074131244E-04       4    7    1        -0.4485907718E-02      0.9765449279E-02

    ------------------------------------------------
       NWT REQUIRED            3 OUTER ITERATIONS 
       AND A TOTAL OF          5 INNER ITERATIONS.
    ------------------------------------------------

 NO OUTPUT CONTROL FOR STRESS PERIOD   18   TIME STEP   17
 
 SOLVING FOR HEAD 
                                                   Max.-Head-Change                         Max.-Flux-Residual
  Residual-Control   Outer-Iter.   Inner-Iter.     Column Row Layer    Maximum-Head-Change  Column Row Layer    Maximum-Flux-Residual          L2-NORM 
          0                 1           2             4    7     1      -0.1204546302E-01       4    7    1        -0.6333498638E+00      0.1375470656E+01
          0                 2           2             4    7     1       0.1171692763E-02       4    7    1         0.6333483251E-01      0.1375221693E+00
          0                 3           1             4    7     1      -0.7978795712E-04       4    7    1        -0.4433441639E-02      0.9624238632E-02

    ------------------------------------------------
       NWT REQUIRED            3 OUTER ITERATIONS 
       AND A TOTAL OF          5 INNER ITERATIONS.
    ------------------------------------------------

 NO OUTPUT CONTROL FOR STRESS PERIOD   18   TIME STEP   18
 
 SOLVING FOR HEAD 
                                                   Max.-Head-Change                         Max.-Flux-Residual
  Residual-Control   Outer-Iter.   Inner-Iter.     Column Row Layer    Maximum-Head-Change  Column Row Layer    Maximum-Flux-Residual          L2-NORM 
          0                 1           2             4    7     1      -0.1190203790E-01       4    7    1        -0.6258726204E+00      0.1356018257E+01
          0                 2           2             4    7     1       0.1157741421E-02       4    7    1         0.6258710880E-01      0.1355804386E+00
          0                 3           1             4    7     1      -0.7883792220E-04       4    7    1        -0.4381100945E-02      0.9488632726E-02

    ------------------------------------------------
       NWT REQUIRED            3 OUTER ITERATIONS 
       AND A TOTAL OF          5 INNER ITERATIONS.
    ------------------------------------------------

 NO OUTPUT CONTROL FOR STRESS PERIOD   18   TIME STEP   19
 
 SOLVING FOR HEAD 
                                                   Max.-Head-Change                         Max.-Flux-Residual
  Residual-Control   Outer-Iter.   Inner-Iter.     Column Row Layer    Maximum-Head-Change  Column Row Layer    Maximum-Flux-Residual          L2-NORM 
          0                 1           2             4    7     1      -0.1175912258E-01       4    7    1        -0.6184140029E+00      0.1337281231E+01
          0                 2           2             4    7     1       0.1143839672E-02       4    7    1         0.6184124795E-01      0.1337097093E+00
          0                 3           1             4    7     1      -0.7789126462E-04       4    7    1        -0.4328890662E-02      0.9358033484E-02

    ------------------------------------------------
       NWT REQUIRED            3 OUTER ITERATIONS 
       AND A TOTAL OF          5 INNER ITERATIONS.
    ------------------------------------------------

 NO OUTPUT CONTROL FOR STRESS PERIOD   18   TIME STEP   20
 
 SOLVING FOR HEAD 
                                                   Max.-Head-Change                         Max.-Flux-Residual
  Residual-Control   Outer-Iter.   Inner-Iter.     Column Row Layer    Maximum-Head-Change  Column Row Layer    Maximum-Flux-Residual          L2-NORM 
          0                 1           2             4    7     1      -0.1161698699E-01       4    7    1        -0.6109891889E+00      0.1319229228E+01
          0                 2           2             4    7     1       0.1130013774E-02       4    7    1         0.6109876766E-01      0.1319070795E+00
          0                 3           1             4    7     1      -0.7694977266E-04       4    7    1        -0.4276917027E-02      0.9232058094E-02

    ------------------------------------------------
       NWT REQUIRED            3 OUTER ITERATIONS 
       AND A TOTAL OF          5 INNER ITERATIONS.
    ------------------------------------------------

 NO OUTPUT CONTROL FOR STRESS PERIOD   18   TIME STEP   21
 
 SOLVING FOR HEAD 
                                                   Max.-Head-Change                         Max.-Flux-Residual
  Residual-Control   Outer-Iter.   Inner-Iter.     Column Row Layer    Maximum-Head-Change  Column Row Layer    Maximum-Flux-Residual          L2-NORM 
          0                 1           2             4    7     1      -0.1147575012E-01       4    7    1        -0.6036048066E+00      0.1301811277E+01
          0                 2           2             4    7     1       0.1116275299E-02       4    7    1         0.6036033076E-01      0.1301674180E+00
          0                 3           1             4    7     1      -0.7601423245E-04       4    7    1        -0.4225226389E-02      0.9110496352E-02

    ------------------------------------------------
       NWT REQUIRED            3 OUTER ITERATIONS 
       AND A TOTAL OF          5 INNER ITERATIONS.
    ------------------------------------------------

 NO OUTPUT CONTROL FOR STRESS PERIOD   18   TIME STEP   22
 
 SOLVING FOR HEAD 
                                                   Max.-Head-Change                         Max.-Flux-Residual
  Residual-Control   Outer-Iter.   Inner-Iter.     Column Row Layer    Maximum-Head-Change  Column Row Layer    Maximum-Flux-Residual          L2-NORM 
          0                 1           2             4    7     1      -0.1133552197E-01       4    7    1        -0.5962670248E+00      0.1284998053E+01
          0                 2           2             4    7     1       0.1102634948E-02       4    7    1         0.5962655409E-01      0.1284878787E+00
          0                 3           1             4    7     1      -0.7508537541E-04       4    7    1        -0.4173861990E-02      0.8993045087E-02

    ------------------------------------------------
       NWT REQUIRED            3 OUTER ITERATIONS 
       AND A TOTAL OF          5 INNER ITERATIONS.
    ------------------------------------------------

 NO OUTPUT CONTROL FOR STRESS PERIOD   18   TIME STEP   23
 
 SOLVING FOR HEAD 
                                                   Max.-Head-Change                         Max.-Flux-Residual
  Residual-Control   Outer-Iter.   Inner-Iter.     Column Row Layer    Maximum-Head-Change  Column Row Layer    Maximum-Flux-Residual          L2-NORM 
          0                 1           2             4    7     1      -0.1119639546E-01       4    7    1        -0.5889815472E+00      0.1268752710E+01
          0                 2           2             4    7     1       0.1089101758E-02       4    7    1         0.5889800799E-01      0.1268649371E+00
          0                 3           1             4    7     1      -0.7416381466E-04       4    7    1        -0.4122863720E-02      0.8879608992E-02

    ------------------------------------------------
       NWT REQUIRED            3 OUTER ITERATIONS 
       AND A TOTAL OF          5 INNER ITERATIONS.
    ------------------------------------------------

 NO OUTPUT CONTROL FOR STRESS PERIOD   18   TIME STEP   24
 
 SOLVING FOR HEAD 
                                                   Max.-Head-Change                         Max.-Flux-Residual
  Residual-Control   Outer-Iter.   Inner-Iter.     Column Row Layer    Maximum-Head-Change  Column Row Layer    Maximum-Flux-Residual          L2-NORM 
          0                 1           2             4    7     1      -0.1105845843E-01       4    7    1        -0.5817531907E+00      0.1253046136E+01
          0                 2           2             4    7     1       0.1075684274E-02       4    7    1         0.5817517415E-01      0.1252955481E+00
          0                 3           1             4    7     1      -0.7325013371E-04       4    7    1        -0.4072265306E-02      0.8769831374E-02

    ------------------------------------------------
       NWT REQUIRED            3 OUTER ITERATIONS 
       AND A TOTAL OF          5 INNER ITERATIONS.
    ------------------------------------------------

 NO OUTPUT CONTROL FOR STRESS PERIOD   18   TIME STEP   25
 
 SOLVING FOR HEAD 
                                                   Max.-Head-Change                         Max.-Flux-Residual
  Residual-Control   Outer-Iter.   Inner-Iter.     Column Row Layer    Maximum-Head-Change  Column Row Layer    Maximum-Flux-Residual          L2-NORM 
          0                 1           2             4    7     1      -0.1092178827E-01       4    7    1        -0.5745865106E+00      0.1237850237E+01
          0                 2           2             4    7     1       0.1062390024E-02       4    7    1         0.5745850804E-01      0.1237771270E+00
          0                 3           1             4    7     1      -0.7234484448E-04       4    7    1        -0.4022098653E-02      0.8663711068E-02

    ------------------------------------------------
       NWT REQUIRED            3 OUTER ITERATIONS 
       AND A TOTAL OF          5 INNER ITERATIONS.
    ------------------------------------------------

 NO OUTPUT CONTROL FOR STRESS PERIOD   18   TIME STEP   26
 
 SOLVING FOR HEAD 
                                                   Max.-Head-Change                         Max.-Flux-Residual
  Residual-Control   Outer-Iter.   Inner-Iter.     Column Row Layer    Maximum-Head-Change  Column Row Layer    Maximum-Flux-Residual          L2-NORM 
          0                 1           2             4    7     1      -0.1078631972E-01       4    7    1        -0.5674781522E+00      0.1223136529E+01
          0                 2           2             4    7     1       0.1049212660E-02       4    7    1         0.5674767425E-01      0.1223061981E+00
          0                 3           1             4    7     1      -0.7144751457E-04       4    7    1        -0.3972340256E-02      0.8560793239E-02

    ------------------------------------------------
       NWT REQUIRED            3 OUTER ITERATIONS 
       AND A TOTAL OF          5 INNER ITERATIONS.
    ------------------------------------------------

 NO OUTPUT CONTROL FOR STRESS PERIOD   18   TIME STEP   27
 
 SOLVING FOR HEAD 
                                                   Max.-Head-Change                         Max.-Flux-Residual
  Residual-Control   Outer-Iter.   Inner-Iter.     Column Row Layer    Maximum-Head-Change  Column Row Layer    Maximum-Flux-Residual          L2-NORM 
          0                 1           2             4    7     1      -0.1065239025E-01       4    7    1        -0.5604468318E+00      0.1208895210E+01
          0                 2           2             4    7     1       0.1036185007E-02       4    7    1         0.5604454432E-01      0.1208834465E+00
          0                 3           1             4    7     1      -0.7056037972E-04       4    7    1        -0.3923121128E-02      0.8461313660E-02

    ------------------------------------------------
       NWT REQUIRED            3 OUTER ITERATIONS 
       AND A TOTAL OF          5 INNER ITERATIONS.
    ------------------------------------------------

 NO OUTPUT CONTROL FOR STRESS PERIOD   18   TIME STEP   28
 
 SOLVING FOR HEAD 
                                                   Max.-Head-Change                         Max.-Flux-Residual
  Residual-Control   Outer-Iter.   Inner-Iter.     Column Row Layer    Maximum-Head-Change  Column Row Layer    Maximum-Flux-Residual          L2-NORM 
          0                 1           2             4    7     1      -0.1051991487E-01       4    7    1        -0.5534879470E+00      0.1195092913E+01
          0                 2           2             4    7     1       0.1023298798E-02       4    7    1         0.5534865800E-01      0.1195038716E+00
          0                 3           1             4    7     1      -0.6968287606E-04       4    7    1        -0.3874409025E-02      0.8364779475E-02

    ------------------------------------------------
       NWT REQUIRED            3 OUTER ITERATIONS 
       AND A TOTAL OF          5 INNER ITERATIONS.
    ------------------------------------------------

 NO OUTPUT CONTROL FOR STRESS PERIOD   18   TIME STEP   29
 
 SOLVING FOR HEAD 
                                                   Max.-Head-Change                         Max.-Flux-Residual
  Residual-Control   Outer-Iter.   Inner-Iter.     Column Row Layer    Maximum-Head-Change  Column Row Layer    Maximum-Flux-Residual          L2-NORM 
          0                 1           2             4    7     1      -0.1038880186E-01       4    7    1        -0.5465970913E+00      0.1181713300E+01
          0                 2           2             4    7     1       0.1010545111E-02       4    7    1         0.5465957468E-01      0.1181664749E+00
          0                 3           1             4    7     1      -0.6881439674E-04       4    7    1        -0.3826173156E-02      0.8271164783E-02

    ------------------------------------------------
       NWT REQUIRED            3 OUTER ITERATIONS 
       AND A TOTAL OF          5 INNER ITERATIONS.
    ------------------------------------------------

 NO OUTPUT CONTROL FOR STRESS PERIOD   18   TIME STEP   30



 STREAM LISTING     PERIOD     18   STEP       30

 LAYER ROW COL. STREAM  RCH.  FLOW INTO     FLOW TO   FLOW OUT OF   OVRLND.     DIRECT     STREAM       STREAM     STREAM     STREAM   STREAMBED  STREAMBED
                SEG.NO.  NO.  STRM. RCH.    AQUIFER    STRM. RCH.    RUNOFF     PRECIP       ET          HEAD       DEPTH      WIDTH   CONDCTNC.   GRADIENT

   1    1    1     1     1    6.3001E+01  3.8237E-01   6.2619E+01  0.000E+00  0.000E+00  0.000E+00  1.09461E+03  1.562E+00  1.863E+01  8.382E-02  1.521E+00
   1    2    2     1     2    6.2619E+01  5.9218E-01   6.2026E+01  0.000E+00  0.000E+00  0.000E+00  1.08961E+03  1.556E+00  1.857E+01  1.300E-01  1.519E+00
   1    3    3     1     3    6.2026E+01  5.0506E-01   6.1521E+01  0.000E+00  0.000E+00  0.000E+00  1.08397E+03  1.549E+00  1.850E+01  1.110E-01  1.516E+00
   1    3    4     1     4    6.1521E+01  4.6511E-01   6.1056E+01  0.000E+00  0.000E+00  0.000E+00  1.07895E+03  1.543E+00  1.845E+01  1.024E-01  1.514E+00
   1    4    5     2     1    5.9056E+01  3.9145E-01   5.8665E+01  0.000E+00  0.000E+00  0.000E+00  1.07395E+03  2.019E+00  1.200E+01  7.800E-02  1.673E+00
   1    5    6     2     2    5.8665E+01  3.0069E-01   5.8364E+01  0.000E+00  0.000E+00  0.000E+00  1.06852E+03  2.011E+00  1.200E+01  6.000E-02  1.670E+00
   1    6    6     2     3    5.8364E+01  3.0031E-01   5.8064E+01  0.000E+00  0.000E+00  0.000E+00  1.06380E+03  2.005E+00  1.200E+01  6.000E-02  1.668E+00
   1    7    6     2     4    5.8064E+01  2.9994E-01   5.7764E+01  0.000E+00  0.000E+00  0.000E+00  1.05907E+03  1.999E+00  1.200E+01  6.000E-02  1.666E+00
   1    8    6     2     5    5.7764E+01  2.9957E-01   5.7464E+01  0.000E+00  0.000E+00  0.000E+00  1.05435E+03  1.993E+00  1.200E+01  6.000E-02  1.664E+00
   1    3    5     3     1    2.0000E+00  2.8252E-01   1.7175E+00  0.000E+00  0.000E+00  0.000E+00  1.07555E+03  1.909E+00  9.636E+00  7.227E-02  1.955E+00
   1    3    6     3     2    1.7175E+00  2.4905E-01   1.4684E+00  0.000E+00  0.000E+00  0.000E+00  1.07264E+03  1.727E+00  8.909E+00  6.682E-02  1.864E+00
   1    3    7     3     3    1.4684E+00  1.9718E-01   1.2712E+00  0.000E+00  0.000E+00  0.000E+00  1.06987E+03  1.555E+00  8.218E+00  5.547E-02  1.777E+00
   1    4    8     3     4    1.2712E+00  2.2567E-01   1.0456E+00  0.000E+00  0.000E+00  0.000E+00  1.06682E+03  1.364E+00  7.455E+00  6.709E-02  1.682E+00
   1    5    8     3     5    1.0456E+00  1.5790E-01   8.8768E-01  0.000E+00  0.000E+00  0.000E+00  1.06362E+03  1.164E+00  6.655E+00  4.991E-02  1.582E+00
   1    6    8     3     6    8.8768E-01  5.5980E-02   8.3170E-01  0.000E+00  0.000E+00  0.000E+00  1.06158E+03  1.036E+00  6.145E+00  1.844E-02  1.518E+00
   1    5   10     4     1    1.0000E+01  9.0919E-02   9.9091E+00  0.000E+00  0.000E+00  0.000E+00  1.07836E+03  6.368E-01  1.000E+01  2.500E-02  1.212E+00
   1    5    9     4     2    9.9091E+00  1.8158E-01   9.7275E+00  0.000E+00  0.000E+00  0.000E+00  1.07154E+03  6.315E-01  1.000E+01  5.000E-02  1.211E+00
   1    6    8     4     3    9.7275E+00  1.2689E-01   9.6006E+00  0.000E+00  0.000E+00  0.000E+00  1.06381E+03  6.256E-01  1.000E+01  3.500E-02  1.209E+00
   1    6    8     5     1    1.0432E+01  2.2686E-01   1.0205E+01  0.000E+00  0.000E+00  0.000E+00  1.05868E+03  6.790E-01  1.542E+01  6.166E-02  1.226E+00
   1    7    7     5     2    1.0205E+01  2.7894E-01   9.9265E+00  0.000E+00  0.000E+00  0.000E+00  1.05417E+03  6.732E-01  1.519E+01  7.594E-02  1.224E+00
   1    8    7     5     3    9.9265E+00  1.9221E-01   9.7343E+00  0.000E+00  0.000E+00  0.000E+00  1.04992E+03  6.676E-01  1.497E+01  5.241E-02  1.223E+00
   1    8    6     5     4    9.7343E+00  1.3577E-01   9.5985E+00  0.000E+00  0.000E+00  0.000E+00  1.04691E+03  6.637E-01  1.482E+01  3.706E-02  1.221E+00
   1    9    6     6     1    6.7063E+01  3.1225E-01   6.6751E+01  0.000E+00  0.000E+00  0.000E+00  1.04493E+03  2.204E+00  1.200E+01  6.000E-02  1.735E+00
   1   10    7     6     2    6.6751E+01  3.1188E-01   6.6439E+01  0.000E+00  0.000E+00  0.000E+00  1.04038E+03  2.198E+00  1.200E+01  6.000E-02  1.733E+00
   1   11    7     6     3    6.6439E+01  3.1151E-01   6.6127E+01  0.000E+00  0.000E+00  0.000E+00  1.03583E+03  2.192E+00  1.200E+01  6.000E-02  1.731E+00
   1   12    7     6     4    6.6127E+01  3.1114E-01   6.5816E+01  0.000E+00  0.000E+00  0.000E+00  1.03128E+03  2.186E+00  1.200E+01  6.000E-02  1.729E+00
   1   13    7     6     5    6.5816E+01  2.3793E-02   6.5792E+01  0.000E+00  0.000E+00  0.000E+00  1.02809E+03  2.182E+00  1.200E+01  2.400E-02  3.305E-01
   1   14    9     7     1    1.5000E+02  1.3313E+00   1.4867E+02  0.000E+00  0.000E+00  0.000E+00  1.03987E+03  2.288E+00  5.529E+01  5.593E-01  7.934E-01
   1   13    8     7     2    1.4867E+02  1.8251E+00   1.4684E+02  0.000E+00  0.000E+00  0.000E+00  1.03478E+03  2.279E+00  5.526E+01  6.148E-01  9.896E-01
   1   13    7     7     3    1.4684E+02  1.4464E+00   1.4540E+02  0.000E+00  0.000E+00  0.000E+00  1.02969E+03  2.271E+00  5.522E+01  5.585E-01  8.633E-01
   1   13    6     8     1    2.1119E+02  1.0640E+00   2.1013E+02  0.000E+00  0.000E+00  0.000E+00  1.02507E+03  3.199E+00  4.639E+01  4.727E-01  7.502E-01
   1   13    5     8     2    2.1013E+02  2.5601E-01   2.0987E+02  0.000E+00  0.000E+00  0.000E+00  1.01882E+03  3.196E+00  4.634E+01  4.722E-01  1.807E-01
   1   13    4     8     3    2.0987E+02 -2.1872E+00   2.1206E+02  0.000E+00  0.000E+00  0.000E+00  1.01258E+03  3.201E+00  4.642E+01  4.730E+00 -1.541E-01
   1   13    3     8     4    2.1206E+02 -3.4520E+00   2.1551E+02  0.000E+00  0.000E+00  0.000E+00  1.00634E+03  3.217E+00  4.665E+01  4.754E+00 -2.421E-01
   1   13    2     8     5    2.1551E+02 -2.5486E+00   2.1806E+02  0.000E+00  0.000E+00  0.000E+00  1.00011E+03  3.234E+00  4.689E+01  4.779E+00 -1.778E-01
   1   13    1     8     6    2.1806E+02 -2.0012E+00   2.2006E+02  0.000E+00  0.000E+00  0.000E+00  9.95122E+02  3.247E+00  4.708E+01  2.878E+00 -2.317E-01





UNSATURATED ZONE PACKAGE VOLUMETRIC BUDGET FOR  TIME STEP    30 STRESS PERIOD   18
  ------------------------------------------------------------------------------



     CUMULATIVE VOLUMES      L**3       RATES FOR THIS TIME STEP      L**3/T
     ------------------                 ------------------------

           IN:                                      IN:
           ---                                      ---
        INFILTRATION =   543672606.2097          INFILTRATION =           8.3175

          OUT:                                     OUT:
          ----                                     ----
              UZF ET =   471209566.0630                UZF ET =           8.3175
        UZF RECHARGE =    72392846.7693          UZF RECHARGE =       0.0000E+00

            IN - OUT =       70193.3774              IN - OUT =       0.0000E+00

          STORAGE:                                 STORAGE:
          --------                                 --------
      STORAGE CHANGE =       70199.5624        STORAGE CHANGE =       8.5236E-15

 PERCENT DISCREPANCY IS DIFFERENCE BETWEEN IN-OUT MINUS CHANGE IN STORAGE
 DIVIDED BY THE AVERAGE OF IN AND OUT TIMES 100

 PERCENT DISCREPANCY =          -0.00     PERCENT DISCREPANCY =           0.00






1
  VOLUMETRIC BUDGET FOR AGRICULTURAL FIELDS AT  END OF TIME STEP   30, STRESS PERIOD  18
  ------------------------------------------------------------------------------

     CUMULATIVE VOLUMES      L**3       RATES FOR THIS TIME STEP      L**3/T
     ------------------                 ------------------------

           IN:                                      IN:
           ---                                      ---
               AG WELLS  =   505707072.0000                 AG WELLS  =           7.4700
      DIVERSION SEGMENTS =           0.0000        DIVERSION SEGMENTS =           0.0000
           GW IRRIGATION =           0.0000             GW IRRIGATION =           0.0000
           SW IRRIGATION =           0.0000             SW IRRIGATION =           0.0000
        SYSTEM LOSSES GW =           0.0000          SYSTEM LOSSES GW =           0.0000
        SYSTEM LOSSES SW =           0.0000          SYSTEM LOSSES SW =           0.0000

                TOTAL IN =   505707072.0000                  TOTAL IN =           7.4700

          OUT:                                     OUT:
          ----                                     ----
               AG WELLS  =           0.0000                 AG WELLS  =           0.0000
      DIVERSION SEGMENTS =           0.0000        DIVERSION SEGMENTS =           0.0000
           GW IRRIGATION =   505707072.0000             GW IRRIGATION =           7.4700
           SW IRRIGATION =           0.0000             SW IRRIGATION =           0.0000
        SYSTEM LOSSES GW =           0.0000          SYSTEM LOSSES GW =           0.0000
        SYSTEM LOSSES SW =           0.0000          SYSTEM LOSSES SW =           0.0000

               TOTAL OUT =   505707072.0000                 TOTAL OUT =           7.4700

                IN - OUT =           0.0000                  IN - OUT =           0.0000

     PERCENT DISCREPANCY =           0.00         PERCENT DISCREPANCY =           0.00



1
  VOLUMETRIC BUDGET FOR ENTIRE MODEL AT END OF TIME STEP   30, STRESS PERIOD  18
  ------------------------------------------------------------------------------

     CUMULATIVE VOLUMES      L**3       RATES FOR THIS TIME STEP      L**3/T
     ------------------                 ------------------------

           IN:                                      IN:
           ---                                      ---
             STORAGE     =   659250496.0000               STORAGE     =           5.4654
       CONSTANT HEAD     =           0.0000         CONSTANT HEAD     =           0.0000
     HEAD DEP BOUNDS     =    12785459.0000       HEAD DEP BOUNDS     =           0.2855
      STREAM LEAKAGE     =   562126592.0000        STREAM LEAKAGE     =          13.1315
        UZF RECHARGE     =    72392816.0000          UZF RECHARGE     =           0.0000
               GW ET     =           0.0000                 GW ET     =           0.0000
     SURFACE LEAKAGE     =           0.0000       SURFACE LEAKAGE     =           0.0000
           AG WELLS      =           0.0000             AG WELLS      =           0.0000

                TOTAL IN =  1306555392.0000                  TOTAL IN =          18.8823

          OUT:                                     OUT:
          ----                                     ----
             STORAGE     =   310858176.0000               STORAGE     =           0.6588
       CONSTANT HEAD     =           0.0000         CONSTANT HEAD     =           0.0000
     HEAD DEP BOUNDS     =    13199232.0000       HEAD DEP BOUNDS     =           0.2970
      STREAM LEAKAGE     =   461427232.0000        STREAM LEAKAGE     =          10.1890
        UZF RECHARGE     =           0.0000          UZF RECHARGE     =           0.0000
               GW ET     =    15367823.0000                 GW ET     =           0.2661
     SURFACE LEAKAGE     =           0.0000       SURFACE LEAKAGE     =           0.0000
           AG WELLS      =   505707072.0000             AG WELLS      =           7.4700

               TOTAL OUT =  1306559488.0000                 TOTAL OUT =          18.8809

                IN - OUT =       -4096.0000                  IN - OUT =       1.3809E-03

     PERCENT DISCREPANCY =          -0.00         PERCENT DISCREPANCY =           0.01






         TIME SUMMARY AT END OF TIME STEP   30 IN STRESS PERIOD   18
                    SECONDS     MINUTES      HOURS       DAYS        YEARS
                    -----------------------------------------------------------
   TIME STEP LENGTH  87667.      1461.1      24.352      1.0147     2.77799E-03
 STRESS PERIOD TIME 2.63000E+06  43833.      730.56      30.440     8.33397E-02
         TOTAL TIME 4.47965E+07 7.46608E+05  12443.      518.48      1.4195    
1
1
                            STRESS PERIOD NO.   19, LENGTH =   2630000.    
                            -----------------------------------------------

                              NUMBER OF TIME STEPS =    30

                               MULTIPLIER FOR DELT =     1.000

                            INITIAL TIME STEP SIZE =   87666.66    

 REUSING NON-PARAMETER GHB CELLS FROM LAST STRESS PERIOD

      2 GHB CELLS

 REUSING STREAM SEGMENT DATA FROM LAST STRESS PERIOD



            AREAL INFILTRATION RATE
 READING ON UNIT   19 WITH FORMAT: (FREE)              

            1           2           3           4           5           6           7           8           9          10
 ........................................................................................................................
   1   1.0000E-10  2.0000E-10   0.000       0.000       0.000       0.000       0.000       0.000       0.000       0.000    
   2   2.0000E-10  1.0000E-10  2.0000E-10   0.000       0.000      8.0000E-10  8.0000E-10  5.0000E-10   0.000       0.000    
   3    0.000      5.0000E-10  1.0000E-10  1.0000E-10  8.0000E-10  8.0000E-10  5.0000E-10  5.0000E-10   0.000       0.000    
   4   8.0000E-10  5.0000E-10  1.0000E-10  1.0000E-10  1.0000E-10  1.0000E-10  1.0000E-10  1.0000E-10  2.0000E-10   0.000    
   5   8.0000E-10  5.0000E-10  1.0000E-10  1.0000E-10  1.0000E-10  1.0000E-10  1.0000E-10  1.0000E-10  1.0000E-10  1.0000E-10
   6   8.0000E-10  5.0000E-10  5.0000E-10  2.0000E-10  2.0000E-10  1.0000E-10  1.0000E-10  1.0000E-10  1.0000E-10  5.0000E-10
   7   8.0000E-10  5.0000E-10  5.0000E-10  2.0000E-10  2.0000E-10  1.0000E-10  1.0000E-10  2.0000E-10  2.0000E-10   0.000    
   8    0.000      5.0000E-10  5.0000E-10  2.0000E-10  2.0000E-10  1.0000E-10  1.0000E-10  2.0000E-10  5.0000E-10   0.000    
   9    0.000      5.0000E-10  5.0000E-10  2.0000E-10  2.0000E-10  1.0000E-10  1.0000E-10  2.0000E-10  5.0000E-10   0.000    
  10    0.000      5.0000E-10  5.0000E-10  2.0000E-10  2.0000E-10  1.0000E-10  1.0000E-10  2.0000E-10  5.0000E-10  8.0000E-10
  11    0.000      1.0000E-10  1.0000E-10  1.0000E-10  1.0000E-10  1.0000E-10  1.0000E-10  2.0000E-10  5.0000E-10   0.000    
  12   1.0000E-10  1.0000E-10  1.0000E-10  1.0000E-10  1.0000E-10  1.0000E-10  1.0000E-10  1.0000E-10  2.0000E-10   0.000    
  13   1.0000E-10  1.0000E-10  2.0000E-10  2.0000E-10  2.0000E-10  2.0000E-10  2.0000E-10  1.0000E-10  1.0000E-10   0.000    
  14    0.000      2.0000E-10  5.0000E-10  5.0000E-10  5.0000E-10  5.0000E-10  5.0000E-10  2.0000E-10  1.0000E-10   0.000    
  15    0.000       0.000      8.0000E-10  8.0000E-10  8.0000E-10  8.0000E-10   0.000       0.000       0.000       0.000    

                  ET RATE =  1.500000E-07

 USING ET EXTINCTION DEPTH FROM PREVIOUS STRESS PERIOD. CURRENT PERIOD IS:      19

 USING EXTINCTION WATER CONTENT FROM PREVIOUS STRESS PERIOD. CURRENT PERIOD IS:      19

 USING AIR ENTRY PRESSURE FROM PREVIOUS STRESS PERIOD. CURRENT PERIOD IS:      19

 USING ROOT PRESSURE HEAD FROM PREVIOUS STRESS PERIOD. CURRENT PERIOD IS:      19

 USING ROOT ACTIVITY FROM PREVIOUS STRESS PERIOD. CURRENT PERIOD IS:      19

 PROCESSING AG STRESS PERIOD DATA

 READING AG STRESS PERIOD DATA

 READING IRRIGATION WELL

 END PROCESSING AG STRESS PERIOD DATA OPTIONS
 
 SOLVING FOR HEAD 
                                                   Max.-Head-Change                         Max.-Flux-Residual
  Residual-Control   Outer-Iter.   Inner-Iter.     Column Row Layer    Maximum-Head-Change  Column Row Layer    Maximum-Flux-Residual          L2-NORM 
          0                 1           2             4    7     1      -0.5814239827E-01       4    7    1        -0.3039791726E+01      0.7221324124E+01
          0                 2           2             4    7     1       0.5655636944E-02       4    7    1         0.3039771218E+00      0.7220322659E+00
          0                 3           2             4    7     1      -0.3851281876E-03       4    7    1        -0.2127842486E-01      0.5053395602E-01
          0                 4           1             4    7     1       0.1532460956E-04       4    7    1         0.8702887053E-03      0.2066336770E-02

    ------------------------------------------------
       NWT REQUIRED            4 OUTER ITERATIONS 
       AND A TOTAL OF          7 INNER ITERATIONS.
    ------------------------------------------------

 OUTPUT CONTROL FOR STRESS PERIOD   19   TIME STEP    1
    PRINT BUDGET
    SAVE BUDGET
 UBDSV1 SAVING "         STORAGE" ON UNIT 102 AT TIME STEP  1, STRESS PERIOD  19
 UBDSV2 SAVING "   CONSTANT HEAD" ON UNIT 102 AT TIME STEP  1, STRESS PERIOD  19
 UBDSV1 SAVING "FLOW RIGHT FACE " ON UNIT 102 AT TIME STEP  1, STRESS PERIOD  19
 UBDSV1 SAVING "FLOW FRONT FACE " ON UNIT 102 AT TIME STEP  1, STRESS PERIOD  19

  HEAD DEP BOUNDS   PERIOD   19   STEP     1
 BOUNDARY      1   LAYER   1   ROW    13   COL     1   RATE   -0.296985    
 BOUNDARY      2   LAYER   1   ROW    14   COL     9   RATE    0.285452    



 STREAM LISTING     PERIOD     19   STEP        1

 LAYER ROW COL. STREAM  RCH.  FLOW INTO     FLOW TO   FLOW OUT OF   OVRLND.     DIRECT     STREAM       STREAM     STREAM     STREAM   STREAMBED  STREAMBED
                SEG.NO.  NO.  STRM. RCH.    AQUIFER    STRM. RCH.    RUNOFF     PRECIP       ET          HEAD       DEPTH      WIDTH   CONDCTNC.   GRADIENT

   1    1    1     1     1    5.8202E+01  3.6567E-01   5.7837E+01  0.000E+00  0.000E+00  0.000E+00  1.09455E+03  1.503E+00  1.804E+01  8.120E-02  1.501E+00
   1    2    2     1     2    5.7837E+01  5.6626E-01   5.7270E+01  0.000E+00  0.000E+00  0.000E+00  1.08956E+03  1.498E+00  1.799E+01  1.259E-01  1.499E+00
   1    3    3     1     3    5.7270E+01  4.8288E-01   5.6788E+01  0.000E+00  0.000E+00  0.000E+00  1.08391E+03  1.491E+00  1.792E+01  1.075E-01  1.497E+00
   1    3    4     1     4    5.6788E+01  4.4463E-01   5.6343E+01  0.000E+00  0.000E+00  0.000E+00  1.07889E+03  1.485E+00  1.786E+01  9.913E-02  1.495E+00
   1    4    5     2     1    5.4343E+01  3.8376E-01   5.3959E+01  0.000E+00  0.000E+00  0.000E+00  1.07385E+03  1.920E+00  1.200E+01  7.800E-02  1.640E+00
   1    5    6     2     2    5.3959E+01  2.9477E-01   5.3664E+01  0.000E+00  0.000E+00  0.000E+00  1.06842E+03  1.913E+00  1.200E+01  6.000E-02  1.638E+00
   1    6    6     2     3    5.3664E+01  2.9439E-01   5.3370E+01  0.000E+00  0.000E+00  0.000E+00  1.06370E+03  1.907E+00  1.200E+01  6.000E-02  1.636E+00
   1    7    6     2     4    5.3370E+01  2.9401E-01   5.3076E+01  0.000E+00  0.000E+00  0.000E+00  1.05898E+03  1.900E+00  1.200E+01  6.000E-02  1.633E+00
   1    8    6     2     5    5.3076E+01  2.9364E-01   5.2782E+01  0.000E+00  0.000E+00  0.000E+00  1.05425E+03  1.894E+00  1.200E+01  6.000E-02  1.631E+00
   1    3    5     3     1    2.0000E+00  2.8252E-01   1.7175E+00  0.000E+00  0.000E+00  0.000E+00  1.07555E+03  1.909E+00  9.636E+00  7.227E-02  1.955E+00
   1    3    6     3     2    1.7175E+00  2.4905E-01   1.4684E+00  0.000E+00  0.000E+00  0.000E+00  1.07264E+03  1.727E+00  8.909E+00  6.682E-02  1.864E+00
   1    3    7     3     3    1.4684E+00  1.9718E-01   1.2712E+00  0.000E+00  0.000E+00  0.000E+00  1.06987E+03  1.555E+00  8.218E+00  5.547E-02  1.777E+00
   1    4    8     3     4    1.2712E+00  2.2567E-01   1.0456E+00  0.000E+00  0.000E+00  0.000E+00  1.06682E+03  1.364E+00  7.455E+00  6.709E-02  1.682E+00
   1    5    8     3     5    1.0456E+00  1.5790E-01   8.8768E-01  0.000E+00  0.000E+00  0.000E+00  1.06362E+03  1.164E+00  6.655E+00  4.991E-02  1.582E+00
   1    6    8     3     6    8.8768E-01  5.5980E-02   8.3170E-01  0.000E+00  0.000E+00  0.000E+00  1.06158E+03  1.036E+00  6.145E+00  1.844E-02  1.518E+00
   1    5   10     4     1    1.0000E+01  9.0919E-02   9.9091E+00  0.000E+00  0.000E+00  0.000E+00  1.07836E+03  6.368E-01  1.000E+01  2.500E-02  1.212E+00
   1    5    9     4     2    9.9091E+00  1.8158E-01   9.7275E+00  0.000E+00  0.000E+00  0.000E+00  1.07154E+03  6.315E-01  1.000E+01  5.000E-02  1.211E+00
   1    6    8     4     3    9.7275E+00  1.2689E-01   9.6006E+00  0.000E+00  0.000E+00  0.000E+00  1.06381E+03  6.256E-01  1.000E+01  3.500E-02  1.209E+00
   1    6    8     5     1    1.0432E+01  2.2686E-01   1.0205E+01  0.000E+00  0.000E+00  0.000E+00  1.05868E+03  6.790E-01  1.542E+01  6.166E-02  1.226E+00
   1    7    7     5     2    1.0205E+01  2.7894E-01   9.9265E+00  0.000E+00  0.000E+00  0.000E+00  1.05417E+03  6.732E-01  1.519E+01  7.594E-02  1.224E+00
   1    8    7     5     3    9.9265E+00  1.9221E-01   9.7343E+00  0.000E+00  0.000E+00  0.000E+00  1.04992E+03  6.676E-01  1.497E+01  5.241E-02  1.223E+00
   1    8    6     5     4    9.7343E+00  1.3577E-01   9.5985E+00  0.000E+00  0.000E+00  0.000E+00  1.04691E+03  6.637E-01  1.482E+01  3.706E-02  1.221E+00
   1    9    6     6     1    6.2381E+01  3.0662E-01   6.2074E+01  0.000E+00  0.000E+00  0.000E+00  1.04484E+03  2.110E+00  1.200E+01  6.000E-02  1.703E+00
   1   10    7     6     2    6.2074E+01  3.0625E-01   6.1768E+01  0.000E+00  0.000E+00  0.000E+00  1.04029E+03  2.104E+00  1.200E+01  6.000E-02  1.701E+00
   1   11    7     6     3    6.1768E+01  3.0587E-01   6.1462E+01  0.000E+00  0.000E+00  0.000E+00  1.03573E+03  2.098E+00  1.200E+01  6.000E-02  1.699E+00
   1   12    7     6     4    6.1462E+01  3.0550E-01   6.1157E+01  0.000E+00  0.000E+00  0.000E+00  1.03118E+03  2.092E+00  1.200E+01  6.000E-02  1.697E+00
   1   13    7     6     5    6.1157E+01  2.1545E-02   6.1135E+01  0.000E+00  0.000E+00  0.000E+00  1.02800E+03  2.088E+00  1.200E+01  2.400E-02  2.992E-01
   1   14    9     7     1    1.5000E+02  1.3313E+00   1.4867E+02  0.000E+00  0.000E+00  0.000E+00  1.03987E+03  2.288E+00  5.529E+01  5.593E-01  7.934E-01
   1   13    8     7     2    1.4867E+02  1.8252E+00   1.4684E+02  0.000E+00  0.000E+00  0.000E+00  1.03478E+03  2.279E+00  5.526E+01  6.148E-01  9.896E-01
   1   13    7     7     3    1.4684E+02  1.4466E+00   1.4540E+02  0.000E+00  0.000E+00  0.000E+00  1.02969E+03  2.271E+00  5.522E+01  5.585E-01  8.634E-01
   1   13    6     8     1    2.0653E+02  1.0430E+00   2.0549E+02  0.000E+00  0.000E+00  0.000E+00  1.02505E+03  3.173E+00  4.600E+01  4.688E-01  7.416E-01
   1   13    5     8     2    2.0549E+02  2.4178E-01   2.0525E+02  0.000E+00  0.000E+00  0.000E+00  1.01879E+03  3.169E+00  4.595E+01  4.683E-01  1.721E-01
   1   13    4     8     3    2.0525E+02 -2.2719E+00   2.0752E+02  0.000E+00  0.000E+00  0.000E+00  1.01255E+03  3.175E+00  4.604E+01  4.691E+00 -1.614E-01
   1   13    3     8     4    2.0752E+02 -3.5155E+00   2.1103E+02  0.000E+00  0.000E+00  0.000E+00  1.00632E+03  3.192E+00  4.628E+01  4.716E+00 -2.485E-01
   1   13    2     8     5    2.1103E+02 -2.6378E+00   2.1367E+02  0.000E+00  0.000E+00  0.000E+00  1.00008E+03  3.209E+00  4.653E+01  4.742E+00 -1.854E-01
   1   13    1     8     6    2.1367E+02 -2.0515E+00   2.1572E+02  0.000E+00  0.000E+00  0.000E+00  9.95097E+02  3.222E+00  4.672E+01  2.857E+00 -2.394E-01



 UBDSV3 SAVING "           GW ET" ON UNIT  61 AT TIME STEP  1, STRESS PERIOD  19
 UBDSV3 SAVING "    UZF RECHARGE" ON UNIT  61 AT TIME STEP  1, STRESS PERIOD  19
 UBDSV3 SAVING " SURFACE LEAKAGE" ON UNIT  61 AT TIME STEP  1, STRESS PERIOD  19
 UBDSV3 SAVING "       HORT+DUNN" ON UNIT  61 AT TIME STEP  1, STRESS PERIOD  19
 UBDSV3 SAVING "  STORAGE CHANGE" ON UNIT  61 AT TIME STEP  1, STRESS PERIOD  19


UNSATURATED ZONE PACKAGE VOLUMETRIC BUDGET FOR  TIME STEP     1 STRESS PERIOD   19
  ------------------------------------------------------------------------------



     CUMULATIVE VOLUMES      L**3       RATES FOR THIS TIME STEP      L**3/T
     ------------------                 ------------------------

           IN:                                      IN:
           ---                                      ---
        INFILTRATION =   545716773.8930          INFILTRATION =          23.3175

          OUT:                                     OUT:
          ----                                     ----
              UZF ET =   473253733.7464                UZF ET =          23.3175
        UZF RECHARGE =    72392846.7693          UZF RECHARGE =       0.0000E+00

            IN - OUT =       70193.3774              IN - OUT =       0.0000E+00

          STORAGE:                                 STORAGE:
          --------                                 --------
      STORAGE CHANGE =       70199.5624        STORAGE CHANGE =       8.4612E-15

 PERCENT DISCREPANCY IS DIFFERENCE BETWEEN IN-OUT MINUS CHANGE IN STORAGE
 DIVIDED BY THE AVERAGE OF IN AND OUT TIMES 100

 PERCENT DISCREPANCY =           0.00     PERCENT DISCREPANCY =           0.00






 

            AG WELLS      PERIOD   19   STEP   1
 AG WELL      1   LAYER   1   ROW     6   COL     4   RATE    -3.74500    
 AG WELL      2   LAYER   1   ROW     6   COL     5   RATE    -3.74500    
 AG WELL      3   LAYER   1   ROW     7   COL     4   RATE    -3.74500    
 AG WELL      4   LAYER   1   ROW     7   COL     5   RATE    -3.74500    
 AG WELL      5   LAYER   1   ROW     8   COL     4   RATE    -3.74500    
 AG WELL      6   LAYER   1   ROW     8   COL     5   RATE    -3.74500    
 
 

        GW IRRIGATION     PERIOD   19   STEP   1
 AG WELL      1   ROW     6   COL     4   RATE     3.74500    
 AG WELL      2   ROW     6   COL     5   RATE     3.74500    
 AG WELL      3   ROW     7   COL     4   RATE     3.74500    
 AG WELL      4   ROW     7   COL     5   RATE     3.74500    
 AG WELL      5   ROW     8   COL     4   RATE     3.74500    
 AG WELL      6   ROW     8   COL     5   RATE     3.74500    
 
1
  VOLUMETRIC BUDGET FOR AGRICULTURAL FIELDS AT  END OF TIME STEP    1, STRESS PERIOD  19
  ------------------------------------------------------------------------------

     CUMULATIVE VOLUMES      L**3       RATES FOR THIS TIME STEP      L**3/T
     ------------------                 ------------------------

           IN:                                      IN:
           ---                                      ---
               AG WELLS  =   507676928.0000                 AG WELLS  =          22.4700
      DIVERSION SEGMENTS =           0.0000        DIVERSION SEGMENTS =           0.0000
           GW IRRIGATION =           0.0000             GW IRRIGATION =           0.0000
           SW IRRIGATION =           0.0000             SW IRRIGATION =           0.0000
        SYSTEM LOSSES GW =           0.0000          SYSTEM LOSSES GW =           0.0000
        SYSTEM LOSSES SW =           0.0000          SYSTEM LOSSES SW =           0.0000

                TOTAL IN =   507676928.0000                  TOTAL IN =          22.4700

          OUT:                                     OUT:
          ----                                     ----
               AG WELLS  =           0.0000                 AG WELLS  =           0.0000
      DIVERSION SEGMENTS =           0.0000        DIVERSION SEGMENTS =           0.0000
           GW IRRIGATION =   507676928.0000             GW IRRIGATION =          22.4700
           SW IRRIGATION =           0.0000             SW IRRIGATION =           0.0000
        SYSTEM LOSSES GW =           0.0000          SYSTEM LOSSES GW =           0.0000
        SYSTEM LOSSES SW =           0.0000          SYSTEM LOSSES SW =           0.0000

               TOTAL OUT =   507676928.0000                 TOTAL OUT =          22.4700

                IN - OUT =           0.0000                  IN - OUT =           0.0000

     PERCENT DISCREPANCY =           0.00         PERCENT DISCREPANCY =           0.00



1
  VOLUMETRIC BUDGET FOR ENTIRE MODEL AT END OF TIME STEP    1, STRESS PERIOD  19
  ------------------------------------------------------------------------------

     CUMULATIVE VOLUMES      L**3       RATES FOR THIS TIME STEP      L**3/T
     ------------------                 ------------------------

           IN:                                      IN:
           ---                                      ---
             STORAGE     =   661117952.0000               STORAGE     =          21.3016
       CONSTANT HEAD     =           0.0000         CONSTANT HEAD     =           0.0000
     HEAD DEP BOUNDS     =    12810484.0000       HEAD DEP BOUNDS     =           0.2855
      STREAM LEAKAGE     =   563262336.0000        STREAM LEAKAGE     =          12.9552
        UZF RECHARGE     =    72392816.0000          UZF RECHARGE     =           0.0000
               GW ET     =           0.0000                 GW ET     =           0.0000
     SURFACE LEAKAGE     =           0.0000       SURFACE LEAKAGE     =           0.0000
           AG WELLS      =           0.0000             AG WELLS      =           0.0000

                TOTAL IN =  1309583616.0000                  TOTAL IN =          34.5423

          OUT:                                     OUT:
          ----                                     ----
             STORAGE     =   310908864.0000               STORAGE     =           0.5783
       CONSTANT HEAD     =           0.0000         CONSTANT HEAD     =           0.0000
     HEAD DEP BOUNDS     =    13225268.0000       HEAD DEP BOUNDS     =           0.2970
      STREAM LEAKAGE     =   462345696.0000        STREAM LEAKAGE     =          10.4766
        UZF RECHARGE     =           0.0000          UZF RECHARGE     =           0.0000
               GW ET     =    15430981.0000                 GW ET     =           0.7204
     SURFACE LEAKAGE     =           0.0000       SURFACE LEAKAGE     =           0.0000
           AG WELLS      =   507676928.0000             AG WELLS      =          22.4700

               TOTAL OUT =  1309587712.0000                 TOTAL OUT =          34.5424

                IN - OUT =       -4096.0000                  IN - OUT =      -7.2479E-05

     PERCENT DISCREPANCY =          -0.00         PERCENT DISCREPANCY =          -0.00






         TIME SUMMARY AT END OF TIME STEP    1 IN STRESS PERIOD   19
                    SECONDS     MINUTES      HOURS       DAYS        YEARS
                    -----------------------------------------------------------
   TIME STEP LENGTH  87667.      1461.1      24.352      1.0147     2.77799E-03
 STRESS PERIOD TIME  87667.      1461.1      24.352      1.0147     2.77799E-03
         TOTAL TIME 4.48841E+07 7.48069E+05  12468.      519.49      1.4223    
1
 
 SOLVING FOR HEAD 
                                                   Max.-Head-Change                         Max.-Flux-Residual
  Residual-Control   Outer-Iter.   Inner-Iter.     Column Row Layer    Maximum-Head-Change  Column Row Layer    Maximum-Flux-Residual          L2-NORM 
          0                 1           2             4    7     1      -0.5776151974E-01       4    7    1        -0.3021022089E+01      0.7092441266E+01
          0                 2           2             4    7     1       0.5618585473E-02       4    7    1         0.3020999930E+00      0.7091675301E+00
          0                 3           2             4    7     1      -0.3826051434E-03       4    7    1        -0.2114702736E-01      0.4963554321E-01
          0                 4           1             4    7     1       0.1522421518E-04       4    7    1         0.8649145343E-03      0.2029647856E-02

    ------------------------------------------------
       NWT REQUIRED            4 OUTER ITERATIONS 
       AND A TOTAL OF          7 INNER ITERATIONS.
    ------------------------------------------------

 NO OUTPUT CONTROL FOR STRESS PERIOD   19   TIME STEP    2
 
 SOLVING FOR HEAD 
                                                   Max.-Head-Change                         Max.-Flux-Residual
  Residual-Control   Outer-Iter.   Inner-Iter.     Column Row Layer    Maximum-Head-Change  Column Row Layer    Maximum-Flux-Residual          L2-NORM 
          0                 1           2             4    7     1      -0.5736295274E-01       4    7    1        -0.3001236325E+01      0.6971023947E+01
          0                 2           2             4    7     1       0.5579813676E-02       4    7    1         0.3001212703E+00      0.6970448792E+00
          0                 3           2             4    7     1      -0.3799649485E-03       4    7    1        -0.2100851810E-01      0.4878869683E-01
          0                 4           1             4    7     1       0.1511915963E-04       4    7    1         0.8592495087E-03      0.1995198618E-02

    ------------------------------------------------
       NWT REQUIRED            4 OUTER ITERATIONS 
       AND A TOTAL OF          7 INNER ITERATIONS.
    ------------------------------------------------

 NO OUTPUT CONTROL FOR STRESS PERIOD   19   TIME STEP    3
 
 SOLVING FOR HEAD 
                                                   Max.-Head-Change                         Max.-Flux-Residual
  Residual-Control   Outer-Iter.   Inner-Iter.     Column Row Layer    Maximum-Head-Change  Column Row Layer    Maximum-Flux-Residual          L2-NORM 
          0                 1           2             4    7     1      -0.5694822581E-01       4    7    1        -0.2980518700E+01      0.6856515363E+01
          0                 2           2             4    7     1       0.5539470216E-02       4    7    1         0.2980493791E+00      0.6856075158E+00
          0                 3           2             4    7     1      -0.3772177261E-03       4    7    1        -0.2086348686E-01      0.4798926450E-01
          0                 4           1             4    7     1       0.1500984460E-04       4    7    1         0.8533177054E-03      0.1962541838E-02

    ------------------------------------------------
       NWT REQUIRED            4 OUTER ITERATIONS 
       AND A TOTAL OF          7 INNER ITERATIONS.
    ------------------------------------------------

 NO OUTPUT CONTROL FOR STRESS PERIOD   19   TIME STEP    4
 
 SOLVING FOR HEAD 
                                                   Max.-Head-Change                         Max.-Flux-Residual
  Residual-Control   Outer-Iter.   Inner-Iter.     Column Row Layer    Maximum-Head-Change  Column Row Layer    Maximum-Flux-Residual          L2-NORM 
          0                 1           2             4    7     1      -0.5651917459E-01       4    7    1        -0.2958970560E+01      0.6748037576E+01
          0                 2           2             4    7     1       0.5497733632E-02       4    7    1         0.2958944526E+00      0.6747695090E+00
          0                 3           2             4    7     1      -0.3743756350E-03       4    7    1        -0.2071264301E-01      0.4723149576E-01
          0                 4           1             4    7     1       0.1489675498E-04       4    7    1         0.8471481735E-03      0.1931638824E-02

    ------------------------------------------------
       NWT REQUIRED            4 OUTER ITERATIONS 
       AND A TOTAL OF          7 INNER ITERATIONS.
    ------------------------------------------------

 NO OUTPUT CONTROL FOR STRESS PERIOD   19   TIME STEP    5
 
 SOLVING FOR HEAD 
                                                   Max.-Head-Change                         Max.-Flux-Residual
  Residual-Control   Outer-Iter.   Inner-Iter.     Column Row Layer    Maximum-Head-Change  Column Row Layer    Maximum-Flux-Residual          L2-NORM 
          0                 1           2             4    7     1      -0.5607739683E-01       4    7    1        -0.2936679718E+01      0.6644907942E+01
          0                 2           2             4    7     1       0.5454759322E-02       4    7    1         0.2936652709E+00      0.6644636511E+00
          0                 3           2             4    7     1      -0.3714492575E-03       4    7    1        -0.2055660114E-01      0.4651071638E-01
          0                 4           1             4    7     1       0.1478031194E-04       4    7    1         0.8407660584E-03      0.1902186599E-02

    ------------------------------------------------
       NWT REQUIRED            4 OUTER ITERATIONS 
       AND A TOTAL OF          7 INNER ITERATIONS.
    ------------------------------------------------

 NO OUTPUT CONTROL FOR STRESS PERIOD   19   TIME STEP    6
 
 SOLVING FOR HEAD 
                                                   Max.-Head-Change                         Max.-Flux-Residual
  Residual-Control   Outer-Iter.   Inner-Iter.     Column Row Layer    Maximum-Head-Change  Column Row Layer    Maximum-Flux-Residual          L2-NORM 
          0                 1           2             4    7     1      -0.5562424725E-01       4    7    1        -0.2913721659E+01      0.6546572420E+01
          0                 2           2             4    7     1       0.5410679047E-02       4    7    1         0.2913693813E+00      0.6546352349E+00
          0                 3           2             4    7     1      -0.3684475656E-03       4    7    1        -0.2039588961E-01      0.4582311301E-01
          0                 4           1             4    7     1       0.1466087166E-04       4    7    1         0.8341929276E-03      0.1874088914E-02

    ------------------------------------------------
       NWT REQUIRED            4 OUTER ITERATIONS 
       AND A TOTAL OF          7 INNER ITERATIONS.
    ------------------------------------------------

 NO OUTPUT CONTROL FOR STRESS PERIOD   19   TIME STEP    7
 
 SOLVING FOR HEAD 
                                                   Max.-Head-Change                         Max.-Flux-Residual
  Residual-Control   Outer-Iter.   Inner-Iter.     Column Row Layer    Maximum-Head-Change  Column Row Layer    Maximum-Flux-Residual          L2-NORM 
          0                 1           2             4    7     1      -0.5516126987E-01       4    7    1        -0.2890181345E+01      0.6452605438E+01
          0                 2           2             4    7     1       0.5365642979E-02       4    7    1         0.2890152790E+00      0.6452423980E+00
          0                 3           2             4    7     1      -0.3653807862E-03       4    7    1        -0.2023110304E-01      0.4516594624E-01
          0                 4           1             4    7     1       0.1453884169E-04       4    7    1         0.8274531581E-03      0.1847218651E-02

    ------------------------------------------------
       NWT REQUIRED            4 OUTER ITERATIONS 
       AND A TOTAL OF          7 INNER ITERATIONS.
    ------------------------------------------------

 NO OUTPUT CONTROL FOR STRESS PERIOD   19   TIME STEP    8
 
 SOLVING FOR HEAD 
                                                   Max.-Head-Change                         Max.-Flux-Residual
  Residual-Control   Outer-Iter.   Inner-Iter.     Column Row Layer    Maximum-Head-Change  Column Row Layer    Maximum-Flux-Residual          L2-NORM 
          0                 1           2             4    7     1      -0.5468950280E-01       4    7    1        -0.2866116756E+01      0.6362626074E+01
          0                 2           2             4    7     1       0.5319752086E-02       4    7    1         0.2866087608E+00      0.6362473535E+00
          0                 3           2             4    7     1      -0.3622557944E-03       4    7    1        -0.2006264725E-01      0.4453655818E-01
          0                 4           1             4    7     1       0.1441449525E-04       4    7    1         0.8205632944E-03      0.1821497487E-02

    ------------------------------------------------
       NWT REQUIRED            4 OUTER ITERATIONS 
       AND A TOTAL OF          7 INNER ITERATIONS.
    ------------------------------------------------

 NO OUTPUT CONTROL FOR STRESS PERIOD   19   TIME STEP    9
 
 SOLVING FOR HEAD 
                                                   Max.-Head-Change                         Max.-Flux-Residual
  Residual-Control   Outer-Iter.   Inner-Iter.     Column Row Layer    Maximum-Head-Change  Column Row Layer    Maximum-Flux-Residual          L2-NORM 
          0                 1           2             4    7     1      -0.5421045353E-01       4    7    1        -0.2841611153E+01      0.6276339720E+01
          0                 2           2             4    7     1       0.5273152988E-02       4    7    1         0.2841581519E+00      0.6276209077E+00
          0                 3           2             4    7     1      -0.3590825752E-03       4    7    1        -0.1989110502E-01      0.4393287456E-01
          0                 4           1             4    7     1       0.1428822998E-04       4    7    1         0.8135472133E-03      0.1796814610E-02

    ------------------------------------------------
       NWT REQUIRED            4 OUTER ITERATIONS 
       AND A TOTAL OF          7 INNER ITERATIONS.
    ------------------------------------------------

 NO OUTPUT CONTROL FOR STRESS PERIOD   19   TIME STEP   10
 
 SOLVING FOR HEAD 
                                                   Max.-Head-Change                         Max.-Flux-Residual
  Residual-Control   Outer-Iter.   Inner-Iter.     Column Row Layer    Maximum-Head-Change  Column Row Layer    Maximum-Flux-Residual          L2-NORM 
          0                 1           2             4    7     1      -0.5372499148E-01       4    7    1        -0.2816713268E+01      0.6193470643E+01
          0                 2           2             4    7     1       0.5225930246E-02       4    7    1         0.2816683246E+00      0.6193356750E+00
          0                 3           2             4    7     1      -0.3558668865E-03       4    7    1        -0.1971681739E-01      0.4335303917E-01
          0                 4           1             4    7     1       0.1416027463E-04       4    7    1         0.8064188394E-03      0.1773118985E-02

    ------------------------------------------------
       NWT REQUIRED            4 OUTER ITERATIONS 
       AND A TOTAL OF          7 INNER ITERATIONS.
    ------------------------------------------------

 NO OUTPUT CONTROL FOR STRESS PERIOD   19   TIME STEP   11
 
 SOLVING FOR HEAD 
                                                   Max.-Head-Change                         Max.-Flux-Residual
  Residual-Control   Outer-Iter.   Inner-Iter.     Column Row Layer    Maximum-Head-Change  Column Row Layer    Maximum-Flux-Residual          L2-NORM 
          0                 1           2             4    7     1      -0.5323445396E-01       4    7    1        -0.2791497609E+01      0.6113784265E+01
          0                 2           2             4    7     1       0.5178213926E-02       4    7    1         0.2791467288E+00      0.6113683249E+00
          0                 3           2             4    7     1      -0.3526175860E-03       4    7    1        -0.1954030589E-01      0.4279541850E-01
          0                 4           1             4    7     1       0.1403098196E-04       4    7    1         0.7991995094E-03      0.1750311221E-02

    ------------------------------------------------
       NWT REQUIRED            4 OUTER ITERATIONS 
       AND A TOTAL OF          7 INNER ITERATIONS.
    ------------------------------------------------

 NO OUTPUT CONTROL FOR STRESS PERIOD   19   TIME STEP   12
 
 SOLVING FOR HEAD 
                                                   Max.-Head-Change                         Max.-Flux-Residual
  Residual-Control   Outer-Iter.   Inner-Iter.     Column Row Layer    Maximum-Head-Change  Column Row Layer    Maximum-Flux-Residual          L2-NORM 
          0                 1           2             4    7     1      -0.5273942603E-01       4    7    1        -0.2765996734E+01      0.6037067358E+01
          0                 2           2             4    7     1       0.5130060932E-02       4    7    1         0.2765966196E+00      0.6036975041E+00
          0                 3           2             4    7     1      -0.3493385479E-03       4    7    1        -0.1936179837E-01      0.4225855403E-01
          0                 4           1             4    7     1       0.1390050578E-04       4    7    1         0.7918985179E-03      0.1728355378E-02

    ------------------------------------------------
       NWT REQUIRED            4 OUTER ITERATIONS 
       AND A TOTAL OF          7 INNER ITERATIONS.
    ------------------------------------------------

 NO OUTPUT CONTROL FOR STRESS PERIOD   19   TIME STEP   13
 
 SOLVING FOR HEAD 
                                                   Max.-Head-Change                         Max.-Flux-Residual
  Residual-Control   Outer-Iter.   Inner-Iter.     Column Row Layer    Maximum-Head-Change  Column Row Layer    Maximum-Flux-Residual          L2-NORM 
          0                 1           2             4    7     1      -0.5224124601E-01       4    7    1        -0.2740285112E+01      0.5963154179E+01
          0                 2           2             4    7     1       0.5081603112E-02       4    7    1         0.2740254430E+00      0.5964116727E+00
          0                 3           2             4    7     1      -0.3460387463E-03       4    7    1        -0.1918181607E-01      0.4174856730E-01
          0                 4           1             4    7     1       0.1376920390E-04       4    7    1         0.7845372568E-03      0.1707496004E-02

    ------------------------------------------------
       NWT REQUIRED            4 OUTER ITERATIONS 
       AND A TOTAL OF          7 INNER ITERATIONS.
    ------------------------------------------------

 NO OUTPUT CONTROL FOR STRESS PERIOD   19   TIME STEP   14
 
 SOLVING FOR HEAD 
                                                   Max.-Head-Change                         Max.-Flux-Residual
  Residual-Control   Outer-Iter.   Inner-Iter.     Column Row Layer    Maximum-Head-Change  Column Row Layer    Maximum-Flux-Residual          L2-NORM 
          0                 1           2             4    7     1      -0.5174046980E-01       4    7    1        -0.2714395270E+01      0.5891800172E+01
          0                 2           2             4    7     1       0.5032890040E-02       4    7    1         0.2714364510E+00      0.5891738708E+00
          0                 3           2             4    7     1      -0.3427215678E-03       4    7    1        -0.1900058663E-01      0.4124199394E-01
          0                 4           1             4    7     1       0.1363721034E-04       4    7    1         0.7771249557E-03      0.1686784019E-02

    ------------------------------------------------
       NWT REQUIRED            4 OUTER ITERATIONS 
       AND A TOTAL OF          7 INNER ITERATIONS.
    ------------------------------------------------

 NO OUTPUT CONTROL FOR STRESS PERIOD   19   TIME STEP   15
 
 SOLVING FOR HEAD 
                                                   Max.-Head-Change                         Max.-Flux-Residual
  Residual-Control   Outer-Iter.   Inner-Iter.     Column Row Layer    Maximum-Head-Change  Column Row Layer    Maximum-Flux-Residual          L2-NORM 
          0                 1           2             4    7     1      -0.5123802170E-01       4    7    1        -0.2688378334E+01      0.5822530396E+01
          0                 2           2             4    7     1       0.4984015526E-02       4    7    1         0.2688347557E+00      0.5822473536E+00
          0                 3           2             4    7     1      -0.3393933945E-03       4    7    1        -0.1881846788E-01      0.4075717460E-01
          0                 4           1             4    7     1       0.1350477906E-04       4    7    1         0.7696762912E-03      0.1666960862E-02

    ------------------------------------------------
       NWT REQUIRED            4 OUTER ITERATIONS 
       AND A TOTAL OF          7 INNER ITERATIONS.
    ------------------------------------------------

 NO OUTPUT CONTROL FOR STRESS PERIOD   19   TIME STEP   16
 
 SOLVING FOR HEAD 
                                                   Max.-Head-Change                         Max.-Flux-Residual
  Residual-Control   Outer-Iter.   Inner-Iter.     Column Row Layer    Maximum-Head-Change  Column Row Layer    Maximum-Flux-Residual          L2-NORM 
          0                 1           2             4    7     1      -0.5073448828E-01       4    7    1        -0.2662267314E+01      0.5755633258E+01
          0                 2           2             4    7     1       0.4935035520E-02       4    7    1         0.2662236574E+00      0.5755580110E+00
          0                 3           2             4    7     1      -0.3360580371E-03       4    7    1        -0.1863569091E-01      0.4028894373E-01
          0                 4           1             4    7     1       0.1337206215E-04       4    7    1         0.7622006956E-03      0.1647816374E-02

    ------------------------------------------------
       NWT REQUIRED            4 OUTER ITERATIONS 
       AND A TOTAL OF          7 INNER ITERATIONS.
    ------------------------------------------------

 NO OUTPUT CONTROL FOR STRESS PERIOD   19   TIME STEP   17
 
 SOLVING FOR HEAD 
                                                   Max.-Head-Change                         Max.-Flux-Residual
  Residual-Control   Outer-Iter.   Inner-Iter.     Column Row Layer    Maximum-Head-Change  Column Row Layer    Maximum-Flux-Residual          L2-NORM 
          0                 1           2             4    7     1      -0.5023067130E-01       4    7    1        -0.2636107386E+01      0.5690975159E+01
          0                 2           2             4    7     1       0.4886028004E-02       4    7    1         0.2636076732E+00      0.5690925068E+00
          0                 3           2             4    7     1      -0.3327208058E-03       4    7    1        -0.1845257186E-01      0.3983637266E-01
          0                 4           1             4    7     1       0.1323927075E-04       4    7    1         0.7547111154E-03      0.1629297854E-02

    ------------------------------------------------
       NWT REQUIRED            4 OUTER ITERATIONS 
       AND A TOTAL OF          7 INNER ITERATIONS.
    ------------------------------------------------

 NO OUTPUT CONTROL FOR STRESS PERIOD   19   TIME STEP   18
 
 SOLVING FOR HEAD 
                                                   Max.-Head-Change                         Max.-Flux-Residual
  Residual-Control   Outer-Iter.   Inner-Iter.     Column Row Layer    Maximum-Head-Change  Column Row Layer    Maximum-Flux-Residual          L2-NORM 
          0                 1           2             4    7     1      -0.4972705430E-01       4    7    1        -0.2609925419E+01      0.5628433553E+01
          0                 2           2             4    7     1       0.4837040004E-02       4    7    1         0.2609894896E+00      0.5628386237E+00
          0                 3           2             4    7     1      -0.3293849025E-03       4    7    1        -0.1826929879E-01      0.3939863330E-01
          0                 4           1             4    7     1       0.1310653220E-04       4    7    1         0.7472152504E-03      0.1611392249E-02

    ------------------------------------------------
       NWT REQUIRED            4 OUTER ITERATIONS 
       AND A TOTAL OF          7 INNER ITERATIONS.
    ------------------------------------------------

 NO OUTPUT CONTROL FOR STRESS PERIOD   19   TIME STEP   19
 
 SOLVING FOR HEAD 
                                                   Max.-Head-Change                         Max.-Flux-Residual
  Residual-Control   Outer-Iter.   Inner-Iter.     Column Row Layer    Maximum-Head-Change  Column Row Layer    Maximum-Flux-Residual          L2-NORM 
          0                 1           2             4    7     1      -0.4922420836E-01       4    7    1        -0.2583753835E+01      0.5567901585E+01
          0                 2           2             4    7     1       0.4788127068E-02       4    7    1         0.2583723483E+00      0.5567856531E+00
          0                 3           2             4    7     1      -0.3260541100E-03       4    7    1        -0.1808609865E-01      0.3897493798E-01
          0                 4           1             4    7     1       0.1297399650E-04       4    7    1         0.7397223308E-03      0.1594071913E-02

    ------------------------------------------------
       NWT REQUIRED            4 OUTER ITERATIONS 
       AND A TOTAL OF          7 INNER ITERATIONS.
    ------------------------------------------------

 NO OUTPUT CONTROL FOR STRESS PERIOD   19   TIME STEP   20
 
 SOLVING FOR HEAD 
                                                   Max.-Head-Change                         Max.-Flux-Residual
  Residual-Control   Outer-Iter.   Inner-Iter.     Column Row Layer    Maximum-Head-Change  Column Row Layer    Maximum-Flux-Residual          L2-NORM 
          0                 1           2             4    7     1      -0.4872292755E-01       4    7    1        -0.2557636943E+01      0.5509275421E+01
          0                 2           2             4    7     1       0.4739366426E-02       4    7    1         0.2557606796E+00      0.5509232370E+00
          0                 3           2             4    7     1      -0.3227336883E-03       4    7    1        -0.1790328158E-01      0.3856458639E-01
          0                 4           1             4    7     1       0.1284187376E-04       4    7    1         0.7322451111E-03      0.1577291574E-02

    ------------------------------------------------
       NWT REQUIRED            4 OUTER ITERATIONS 
       AND A TOTAL OF          7 INNER ITERATIONS.
    ------------------------------------------------

 NO OUTPUT CONTROL FOR STRESS PERIOD   19   TIME STEP   21
 
 SOLVING FOR HEAD 
                                                   Max.-Head-Change                         Max.-Flux-Residual
  Residual-Control   Outer-Iter.   Inner-Iter.     Column Row Layer    Maximum-Head-Change  Column Row Layer    Maximum-Flux-Residual          L2-NORM 
          0                 1           2             4    7     1      -0.4822327452E-01       4    7    1        -0.2531579171E+01      0.5452456526E+01
          0                 2           2             4    7     1       0.4690764170E-02       4    7    1         0.2531549261E+00      0.5452415113E+00
          0                 3           2             4    7     1      -0.3194240517E-03       4    7    1        -0.1772087853E-01      0.3816687200E-01
          0                 4           1             4    7     1       0.1271018056E-04       4    7    1         0.7247848364E-03      0.1561024127E-02

    ------------------------------------------------
       NWT REQUIRED            4 OUTER ITERATIONS 
       AND A TOTAL OF          7 INNER ITERATIONS.
    ------------------------------------------------

 NO OUTPUT CONTROL FOR STRESS PERIOD   19   TIME STEP   22
 
 SOLVING FOR HEAD 
                                                   Max.-Head-Change                         Max.-Flux-Residual
  Residual-Control   Outer-Iter.   Inner-Iter.     Column Row Layer    Maximum-Head-Change  Column Row Layer    Maximum-Flux-Residual          L2-NORM 
          0                 1           2             4    7     1      -0.4772597015E-01       4    7    1        -0.2505620509E+01      0.5397357455E+01
          0                 2           2             4    7     1       0.4642390415E-02       4    7    1         0.2505590864E+00      0.5397317544E+00
          0                 3           2             4    7     1      -0.3161299743E-03       4    7    1        -0.1753916942E-01      0.3778118739E-01
          0                 4           1             4    7     1       0.1257910606E-04       4    7    1         0.7173529236E-03      0.1545247306E-02

    ------------------------------------------------
       NWT REQUIRED            4 OUTER ITERATIONS 
       AND A TOTAL OF          7 INNER ITERATIONS.
    ------------------------------------------------

 NO OUTPUT CONTROL FOR STRESS PERIOD   19   TIME STEP   23
 
 SOLVING FOR HEAD 
                                                   Max.-Head-Change                         Max.-Flux-Residual
  Residual-Control   Outer-Iter.   Inner-Iter.     Column Row Layer    Maximum-Head-Change  Column Row Layer    Maximum-Flux-Residual          L2-NORM 
          0                 1           2             4    7     1      -0.4723140988E-01       4    7    1        -0.2479783637E+01      0.5343898237E+01
          0                 2           2             4    7     1       0.4594283622E-02       4    7    1         0.2479754281E+00      0.5343859734E+00
          0                 3           2             4    7     1      -0.3128540754E-03       4    7    1        -0.1735831298E-01      0.3740700000E-01
          0                 4           1             4    7     1       0.1244875480E-04       4    7    1         0.7099558736E-03      0.1529946218E-02

    ------------------------------------------------
       NWT REQUIRED            4 OUTER ITERATIONS 
       AND A TOTAL OF          7 INNER ITERATIONS.
    ------------------------------------------------

 NO OUTPUT CONTROL FOR STRESS PERIOD   19   TIME STEP   24
 
 SOLVING FOR HEAD 
                                                   Max.-Head-Change                         Max.-Flux-Residual
  Residual-Control   Outer-Iter.   Inner-Iter.     Column Row Layer    Maximum-Head-Change  Column Row Layer    Maximum-Flux-Residual          L2-NORM 
          0                 1           2             4    7     1      -0.4673995226E-01       4    7    1        -0.2454089059E+01      0.5292000505E+01
          0                 2           2             4    7     1       0.4546478664E-02       4    7    1         0.2454060014E+00      0.5291963340E+00
          0                 3           2             4    7     1      -0.3095987307E-03       4    7    1        -0.1717845275E-01      0.3704373765E-01
          0                 4           1             4    7     1       0.1231922185E-04       4    7    1         0.7025995840E-03      0.1515093794E-02

    ------------------------------------------------
       NWT REQUIRED            4 OUTER ITERATIONS 
       AND A TOTAL OF          7 INNER ITERATIONS.
    ------------------------------------------------

 NO OUTPUT CONTROL FOR STRESS PERIOD   19   TIME STEP   25
 
 SOLVING FOR HEAD 
                                                   Max.-Head-Change                         Max.-Flux-Residual
  Residual-Control   Outer-Iter.   Inner-Iter.     Column Row Layer    Maximum-Head-Change  Column Row Layer    Maximum-Flux-Residual          L2-NORM 
          0                 1           2             4    7     1      -0.4625179039E-01       4    7    1        -0.2428548021E+01      0.5241593571E+01
          0                 2           2             4    7     1       0.4498994319E-02       4    7    1         0.2428519305E+00      0.5241557497E+00
          0                 3           2             4    7     1      -0.3063652176E-03       4    7    1        -0.1699966739E-01      0.3669089176E-01
          0                 4           1             4    7     1       0.1219055732E-04       4    7    1         0.6952872466E-03      0.1500656580E-02

    ------------------------------------------------
       NWT REQUIRED            4 OUTER ITERATIONS 
       AND A TOTAL OF          7 INNER ITERATIONS.
    ------------------------------------------------

 NO OUTPUT CONTROL FOR STRESS PERIOD   19   TIME STEP   26
 
 SOLVING FOR HEAD 
                                                   Max.-Head-Change                         Max.-Flux-Residual
  Residual-Control   Outer-Iter.   Inner-Iter.     Column Row Layer    Maximum-Head-Change  Column Row Layer    Maximum-Flux-Residual          L2-NORM 
          0                 1           2             4    7     1      -0.4576736235E-01       4    7    1        -0.2403185225E+01      0.5192604303E+01
          0                 2           2             4    7     1       0.4451873198E-02       4    7    1         0.2403156855E+00      0.5192569265E+00
          0                 3           2             4    7     1      -0.3031564392E-03       4    7    1        -0.1682212984E-01      0.3634798080E-01
          0                 4           1             4    7     1       0.1206287701E-04       4    7    1         0.6880259587E-03      0.1486626497E-02

    ------------------------------------------------
       NWT REQUIRED            4 OUTER ITERATIONS 
       AND A TOTAL OF          7 INNER ITERATIONS.
    ------------------------------------------------

 NO OUTPUT CONTROL FOR STRESS PERIOD   19   TIME STEP   27
 
 SOLVING FOR HEAD 
                                                   Max.-Head-Change                         Max.-Flux-Residual
  Residual-Control   Outer-Iter.   Inner-Iter.     Column Row Layer    Maximum-Head-Change  Column Row Layer    Maximum-Flux-Residual          L2-NORM 
          0                 1           2             4    7     1      -0.4528693055E-01       4    7    1        -0.2378016039E+01      0.5144983225E+01
          0                 2           2             4    7     1       0.4405140821E-02       4    7    1         0.2377988028E+00      0.5144949231E+00
          0                 3           2             4    7     1      -0.2999741321E-03       4    7    1        -0.1664594763E-01      0.3601464862E-01
          0                 4           1             4    7     1       0.1193624989E-04       4    7    1         0.6808200937E-03      0.1473000968E-02

    ------------------------------------------------
       NWT REQUIRED            4 OUTER ITERATIONS 
       AND A TOTAL OF          7 INNER ITERATIONS.
    ------------------------------------------------

 NO OUTPUT CONTROL FOR STRESS PERIOD   19   TIME STEP   28
 
 SOLVING FOR HEAD 
                                                   Max.-Head-Change                         Max.-Flux-Residual
  Residual-Control   Outer-Iter.   Inner-Iter.     Column Row Layer    Maximum-Head-Change  Column Row Layer    Maximum-Flux-Residual          L2-NORM 
          0                 1           2             4    7     1      -0.4481060905E-01       4    7    1        -0.2353046726E+01      0.5100303270E+01
          0                 2           2             4    7     1       0.4358808284E-02       4    7    1         0.2353019088E+00      0.5100228551E+00
          0                 3           2             4    7     1      -0.2968190528E-03       4    7    1        -0.1647116463E-01      0.3570123494E-01
          0                 4           1             4    7     1       0.1181070635E-04       4    7    1         0.6736714549E-03      0.1460156359E-02

    ------------------------------------------------
       NWT REQUIRED            4 OUTER ITERATIONS 
       AND A TOTAL OF          7 INNER ITERATIONS.
    ------------------------------------------------

 NO OUTPUT CONTROL FOR STRESS PERIOD   19   TIME STEP   29
 
 SOLVING FOR HEAD 
                                                   Max.-Head-Change                         Max.-Flux-Residual
  Residual-Control   Outer-Iter.   Inner-Iter.     Column Row Layer    Maximum-Head-Change  Column Row Layer    Maximum-Flux-Residual          L2-NORM 
          0                 1           2             4    7     1      -0.4433889831E-01       4    7    1        -0.2328305230E+01      0.5058429976E+01
          0                 2           2             4    7     1       0.4312924261E-02       4    7    1         0.2328277973E+00      0.5058256248E+00
          0                 3           2             4    7     1      -0.2936945154E-03       4    7    1        -0.1629797638E-01      0.3540652838E-01
          0                 4           1             4    7     1       0.1168637821E-04       4    7    1         0.6665880624E-03      0.1448035399E-02

    ------------------------------------------------
       NWT REQUIRED            4 OUTER ITERATIONS 
       AND A TOTAL OF          7 INNER ITERATIONS.
    ------------------------------------------------

 NO OUTPUT CONTROL FOR STRESS PERIOD   19   TIME STEP   30



 STREAM LISTING     PERIOD     19   STEP       30

 LAYER ROW COL. STREAM  RCH.  FLOW INTO     FLOW TO   FLOW OUT OF   OVRLND.     DIRECT     STREAM       STREAM     STREAM     STREAM   STREAMBED  STREAMBED
                SEG.NO.  NO.  STRM. RCH.    AQUIFER    STRM. RCH.    RUNOFF     PRECIP       ET          HEAD       DEPTH      WIDTH   CONDCTNC.   GRADIENT

   1    1    1     1     1    5.4001E+01  3.5066E-01   5.3650E+01  0.000E+00  0.000E+00  0.000E+00  1.09450E+03  1.450E+00  1.751E+01  7.879E-02  1.483E+00
   1    2    2     1     2    5.3650E+01  5.4294E-01   5.3107E+01  0.000E+00  0.000E+00  0.000E+00  1.08950E+03  1.445E+00  1.745E+01  1.222E-01  1.482E+00
   1    3    3     1     3    5.3107E+01  4.6294E-01   5.2644E+01  0.000E+00  0.000E+00  0.000E+00  1.08386E+03  1.438E+00  1.739E+01  1.043E-01  1.479E+00
   1    3    4     1     4    5.2644E+01  4.2621E-01   5.2218E+01  0.000E+00  0.000E+00  0.000E+00  1.07884E+03  1.432E+00  1.733E+01  9.616E-02  1.477E+00
   1    4    5     2     1    5.0218E+01  3.7682E-01   4.9841E+01  0.000E+00  0.000E+00  0.000E+00  1.07376E+03  1.831E+00  1.200E+01  7.800E-02  1.610E+00
   1    5    6     2     2    4.9841E+01  2.8942E-01   4.9552E+01  0.000E+00  0.000E+00  0.000E+00  1.06833E+03  1.824E+00  1.200E+01  6.000E-02  1.608E+00
   1    6    6     2     3    4.9552E+01  2.8904E-01   4.9263E+01  0.000E+00  0.000E+00  0.000E+00  1.06361E+03  1.817E+00  1.200E+01  6.000E-02  1.606E+00
   1    7    6     2     4    4.9263E+01  2.8865E-01   4.8974E+01  0.000E+00  0.000E+00  0.000E+00  1.05889E+03  1.811E+00  1.200E+01  6.000E-02  1.604E+00
   1    8    6     2     5    4.8974E+01  2.8827E-01   4.8686E+01  0.000E+00  0.000E+00  0.000E+00  1.05416E+03  1.804E+00  1.200E+01  6.000E-02  1.601E+00
   1    3    5     3     1    2.0000E+00  2.8252E-01   1.7175E+00  0.000E+00  0.000E+00  0.000E+00  1.07555E+03  1.909E+00  9.636E+00  7.227E-02  1.955E+00
   1    3    6     3     2    1.7175E+00  2.4905E-01   1.4684E+00  0.000E+00  0.000E+00  0.000E+00  1.07264E+03  1.727E+00  8.909E+00  6.682E-02  1.864E+00
   1    3    7     3     3    1.4684E+00  1.9718E-01   1.2712E+00  0.000E+00  0.000E+00  0.000E+00  1.06987E+03  1.555E+00  8.218E+00  5.547E-02  1.777E+00
   1    4    8     3     4    1.2712E+00  2.2567E-01   1.0456E+00  0.000E+00  0.000E+00  0.000E+00  1.06682E+03  1.364E+00  7.455E+00  6.709E-02  1.682E+00
   1    5    8     3     5    1.0456E+00  1.5790E-01   8.8768E-01  0.000E+00  0.000E+00  0.000E+00  1.06362E+03  1.164E+00  6.655E+00  4.991E-02  1.582E+00
   1    6    8     3     6    8.8768E-01  5.5980E-02   8.3170E-01  0.000E+00  0.000E+00  0.000E+00  1.06158E+03  1.036E+00  6.145E+00  1.844E-02  1.518E+00
   1    5   10     4     1    1.0000E+01  9.0919E-02   9.9091E+00  0.000E+00  0.000E+00  0.000E+00  1.07836E+03  6.368E-01  1.000E+01  2.500E-02  1.212E+00
   1    5    9     4     2    9.9091E+00  1.8158E-01   9.7275E+00  0.000E+00  0.000E+00  0.000E+00  1.07154E+03  6.315E-01  1.000E+01  5.000E-02  1.211E+00
   1    6    8     4     3    9.7275E+00  1.2689E-01   9.6006E+00  0.000E+00  0.000E+00  0.000E+00  1.06381E+03  6.256E-01  1.000E+01  3.500E-02  1.209E+00
   1    6    8     5     1    1.0432E+01  2.2686E-01   1.0205E+01  0.000E+00  0.000E+00  0.000E+00  1.05868E+03  6.790E-01  1.542E+01  6.166E-02  1.226E+00
   1    7    7     5     2    1.0205E+01  2.7894E-01   9.9265E+00  0.000E+00  0.000E+00  0.000E+00  1.05417E+03  6.732E-01  1.519E+01  7.594E-02  1.224E+00
   1    8    7     5     3    9.9265E+00  1.9221E-01   9.7343E+00  0.000E+00  0.000E+00  0.000E+00  1.04992E+03  6.676E-01  1.497E+01  5.241E-02  1.223E+00
   1    8    6     5     4    9.7343E+00  1.3577E-01   9.5985E+00  0.000E+00  0.000E+00  0.000E+00  1.04691E+03  6.637E-01  1.482E+01  3.706E-02  1.221E+00
   1    9    6     6     1    5.8284E+01  3.0156E-01   5.7983E+01  0.000E+00  0.000E+00  0.000E+00  1.04475E+03  2.026E+00  1.200E+01  6.000E-02  1.675E+00
   1   10    7     6     2    5.7983E+01  3.0118E-01   5.7682E+01  0.000E+00  0.000E+00  0.000E+00  1.04020E+03  2.020E+00  1.200E+01  6.000E-02  1.673E+00
   1   11    7     6     3    5.7682E+01  3.0080E-01   5.7381E+01  0.000E+00  0.000E+00  0.000E+00  1.03565E+03  2.013E+00  1.200E+01  6.000E-02  1.671E+00
   1   12    7     6     4    5.7381E+01  3.0042E-01   5.7080E+01  0.000E+00  0.000E+00  0.000E+00  1.03110E+03  2.007E+00  1.200E+01  6.000E-02  1.669E+00
   1   13    7     6     5    5.7080E+01  1.9766E-02   5.7061E+01  0.000E+00  0.000E+00  0.000E+00  1.02791E+03  2.004E+00  1.200E+01  2.400E-02  2.745E-01
   1   14    9     7     1    1.5000E+02  1.3321E+00   1.4867E+02  0.000E+00  0.000E+00  0.000E+00  1.03987E+03  2.288E+00  5.529E+01  5.593E-01  7.939E-01
   1   13    8     7     2    1.4867E+02  1.8284E+00   1.4684E+02  0.000E+00  0.000E+00  0.000E+00  1.03478E+03  2.279E+00  5.526E+01  6.148E-01  9.914E-01
   1   13    7     7     3    1.4684E+02  1.4524E+00   1.4539E+02  0.000E+00  0.000E+00  0.000E+00  1.02969E+03  2.271E+00  5.522E+01  5.585E-01  8.669E-01
   1   13    6     8     1    2.0245E+02  1.0331E+00   2.0141E+02  0.000E+00  0.000E+00  0.000E+00  1.02502E+03  3.149E+00  4.566E+01  4.653E-01  7.401E-01
   1   13    5     8     2    2.0141E+02  2.3776E-01   2.0118E+02  0.000E+00  0.000E+00  0.000E+00  1.01877E+03  3.145E+00  4.561E+01  4.648E-01  1.705E-01
   1   13    4     8     3    2.0118E+02 -2.2630E+00   2.0344E+02  0.000E+00  0.000E+00  0.000E+00  1.01253E+03  3.151E+00  4.569E+01  4.656E+00 -1.620E-01
   1   13    3     8     4    2.0344E+02 -3.4598E+00   2.0690E+02  0.000E+00  0.000E+00  0.000E+00  1.00629E+03  3.168E+00  4.593E+01  4.681E+00 -2.464E-01
   1   13    2     8     5    2.0690E+02 -2.6091E+00   2.0951E+02  0.000E+00  0.000E+00  0.000E+00  1.00006E+03  3.185E+00  4.619E+01  4.707E+00 -1.848E-01
   1   13    1     8     6    2.0951E+02 -2.0314E+00   2.1154E+02  0.000E+00  0.000E+00  0.000E+00  9.95074E+02  3.199E+00  4.638E+01  2.836E+00 -2.388E-01





UNSATURATED ZONE PACKAGE VOLUMETRIC BUDGET FOR  TIME STEP    30 STRESS PERIOD   19
  ------------------------------------------------------------------------------



     CUMULATIVE VOLUMES      L**3       RATES FOR THIS TIME STEP      L**3/T
     ------------------                 ------------------------

           IN:                                      IN:
           ---                                      ---
        INFILTRATION =   604997636.7111          INFILTRATION =          23.3175

          OUT:                                     OUT:
          ----                                     ----
              UZF ET =   532534596.5644                UZF ET =          23.3175
        UZF RECHARGE =    72392846.7693          UZF RECHARGE =       0.0000E+00

            IN - OUT =       70193.3774              IN - OUT =       0.0000E+00

          STORAGE:                                 STORAGE:
          --------                                 --------
      STORAGE CHANGE =       70199.5624        STORAGE CHANGE =       8.5030E-15

 PERCENT DISCREPANCY IS DIFFERENCE BETWEEN IN-OUT MINUS CHANGE IN STORAGE
 DIVIDED BY THE AVERAGE OF IN AND OUT TIMES 100

 PERCENT DISCREPANCY =           0.00     PERCENT DISCREPANCY =           0.00






1
  VOLUMETRIC BUDGET FOR AGRICULTURAL FIELDS AT  END OF TIME STEP   30, STRESS PERIOD  19
  ------------------------------------------------------------------------------

     CUMULATIVE VOLUMES      L**3       RATES FOR THIS TIME STEP      L**3/T
     ------------------                 ------------------------

           IN:                                      IN:
           ---                                      ---
               AG WELLS  =   564802752.0000                 AG WELLS  =          22.4700
      DIVERSION SEGMENTS =           0.0000        DIVERSION SEGMENTS =           0.0000
           GW IRRIGATION =           0.0000             GW IRRIGATION =           0.0000
           SW IRRIGATION =           0.0000             SW IRRIGATION =           0.0000
        SYSTEM LOSSES GW =           0.0000          SYSTEM LOSSES GW =           0.0000
        SYSTEM LOSSES SW =           0.0000          SYSTEM LOSSES SW =           0.0000

                TOTAL IN =   564802752.0000                  TOTAL IN =          22.4700

          OUT:                                     OUT:
          ----                                     ----
               AG WELLS  =           0.0000                 AG WELLS  =           0.0000
      DIVERSION SEGMENTS =           0.0000        DIVERSION SEGMENTS =           0.0000
           GW IRRIGATION =   564802752.0000             GW IRRIGATION =          22.4700
           SW IRRIGATION =           0.0000             SW IRRIGATION =           0.0000
        SYSTEM LOSSES GW =           0.0000          SYSTEM LOSSES GW =           0.0000
        SYSTEM LOSSES SW =           0.0000          SYSTEM LOSSES SW =           0.0000

               TOTAL OUT =   564802752.0000                 TOTAL OUT =          22.4700

                IN - OUT =           0.0000                  IN - OUT =           0.0000

     PERCENT DISCREPANCY =           0.00         PERCENT DISCREPANCY =           0.00



1
  VOLUMETRIC BUDGET FOR ENTIRE MODEL AT END OF TIME STEP   30, STRESS PERIOD  19
  ------------------------------------------------------------------------------

     CUMULATIVE VOLUMES      L**3       RATES FOR THIS TIME STEP      L**3/T
     ------------------                 ------------------------

           IN:                                      IN:
           ---                                      ---
             STORAGE     =   713431872.0000               STORAGE     =          20.7173
       CONSTANT HEAD     =           0.0000         CONSTANT HEAD     =           0.0000
     HEAD DEP BOUNDS     =    13536265.0000       HEAD DEP BOUNDS     =           0.2855
      STREAM LEAKAGE     =   596198592.0000        STREAM LEAKAGE     =          12.8239
        UZF RECHARGE     =    72392816.0000          UZF RECHARGE     =           0.0000
               GW ET     =           0.0000                 GW ET     =           0.0000
     SURFACE LEAKAGE     =           0.0000       SURFACE LEAKAGE     =           0.0000
           AG WELLS      =           0.0000             AG WELLS      =           0.0000

                TOTAL IN =  1395559552.0000                  TOTAL IN =          33.8267

          OUT:                                     OUT:
          ----                                     ----
             STORAGE     =   312006496.0000               STORAGE     =           0.3658
       CONSTANT HEAD     =           0.0000         CONSTANT HEAD     =           0.0000
     HEAD DEP BOUNDS     =    13978815.0000       HEAD DEP BOUNDS     =           0.2960
      STREAM LEAKAGE     =   488289760.0000        STREAM LEAKAGE     =          10.3633
        UZF RECHARGE     =           0.0000          UZF RECHARGE     =           0.0000
               GW ET     =    16485520.0000                 GW ET     =           0.3316
     SURFACE LEAKAGE     =           0.0000       SURFACE LEAKAGE     =           0.0000
           AG WELLS      =   564802752.0000             AG WELLS      =          22.4700

               TOTAL OUT =  1395563264.0000                 TOTAL OUT =          33.8267

                IN - OUT =       -3712.0000                  IN - OUT =      -6.8665E-05

     PERCENT DISCREPANCY =          -0.00         PERCENT DISCREPANCY =          -0.00






         TIME SUMMARY AT END OF TIME STEP   30 IN STRESS PERIOD   19
                    SECONDS     MINUTES      HOURS       DAYS        YEARS
                    -----------------------------------------------------------
   TIME STEP LENGTH  87667.      1461.1      24.352      1.0147     2.77799E-03
 STRESS PERIOD TIME 2.63000E+06  43833.      730.56      30.440     8.33397E-02
         TOTAL TIME 4.74265E+07 7.90442E+05  13174.      548.92      1.5029    
1
1
                            STRESS PERIOD NO.   20, LENGTH =   2630000.    
                            -----------------------------------------------

                              NUMBER OF TIME STEPS =    30

                               MULTIPLIER FOR DELT =     1.000

                            INITIAL TIME STEP SIZE =   87666.66    

 REUSING NON-PARAMETER GHB CELLS FROM LAST STRESS PERIOD

      2 GHB CELLS

 REUSING STREAM SEGMENT DATA FROM LAST STRESS PERIOD



            AREAL INFILTRATION RATE
 READING ON UNIT   19 WITH FORMAT: (FREE)              

            1           2           3           4           5           6           7           8           9          10
 ........................................................................................................................
   1   1.0000E-10  2.0000E-10   0.000       0.000       0.000       0.000       0.000       0.000       0.000       0.000    
   2   2.0000E-10  1.0000E-10  2.0000E-10   0.000       0.000      8.0000E-10  8.0000E-10  5.0000E-10   0.000       0.000    
   3    0.000      5.0000E-10  1.0000E-10  1.0000E-10  8.0000E-10  8.0000E-10  5.0000E-10  5.0000E-10   0.000       0.000    
   4   8.0000E-10  5.0000E-10  1.0000E-10  1.0000E-10  1.0000E-10  1.0000E-10  1.0000E-10  1.0000E-10  2.0000E-10   0.000    
   5   8.0000E-10  5.0000E-10  1.0000E-10  1.0000E-10  1.0000E-10  1.0000E-10  1.0000E-10  1.0000E-10  1.0000E-10  1.0000E-10
   6   8.0000E-10  5.0000E-10  5.0000E-10  2.0000E-10  2.0000E-10  1.0000E-10  1.0000E-10  1.0000E-10  1.0000E-10  5.0000E-10
   7   8.0000E-10  5.0000E-10  5.0000E-10  2.0000E-10  2.0000E-10  1.0000E-10  1.0000E-10  2.0000E-10  2.0000E-10   0.000    
   8    0.000      5.0000E-10  5.0000E-10  2.0000E-10  2.0000E-10  1.0000E-10  1.0000E-10  2.0000E-10  5.0000E-10   0.000    
   9    0.000      5.0000E-10  5.0000E-10  2.0000E-10  2.0000E-10  1.0000E-10  1.0000E-10  2.0000E-10  5.0000E-10   0.000    
  10    0.000      5.0000E-10  5.0000E-10  2.0000E-10  2.0000E-10  1.0000E-10  1.0000E-10  2.0000E-10  5.0000E-10  8.0000E-10
  11    0.000      1.0000E-10  1.0000E-10  1.0000E-10  1.0000E-10  1.0000E-10  1.0000E-10  2.0000E-10  5.0000E-10   0.000    
  12   1.0000E-10  1.0000E-10  1.0000E-10  1.0000E-10  1.0000E-10  1.0000E-10  1.0000E-10  1.0000E-10  2.0000E-10   0.000    
  13   1.0000E-10  1.0000E-10  2.0000E-10  2.0000E-10  2.0000E-10  2.0000E-10  2.0000E-10  1.0000E-10  1.0000E-10   0.000    
  14    0.000      2.0000E-10  5.0000E-10  5.0000E-10  5.0000E-10  5.0000E-10  5.0000E-10  2.0000E-10  1.0000E-10   0.000    
  15    0.000       0.000      8.0000E-10  8.0000E-10  8.0000E-10  8.0000E-10   0.000       0.000       0.000       0.000    

                  ET RATE =  4.000000E-07

 USING ET EXTINCTION DEPTH FROM PREVIOUS STRESS PERIOD. CURRENT PERIOD IS:      20

 USING EXTINCTION WATER CONTENT FROM PREVIOUS STRESS PERIOD. CURRENT PERIOD IS:      20

 USING AIR ENTRY PRESSURE FROM PREVIOUS STRESS PERIOD. CURRENT PERIOD IS:      20

 USING ROOT PRESSURE HEAD FROM PREVIOUS STRESS PERIOD. CURRENT PERIOD IS:      20

 USING ROOT ACTIVITY FROM PREVIOUS STRESS PERIOD. CURRENT PERIOD IS:      20

 PROCESSING AG STRESS PERIOD DATA

 READING AG STRESS PERIOD DATA

 READING IRRIGATION WELL

 END PROCESSING AG STRESS PERIOD DATA OPTIONS
 
 SOLVING FOR HEAD 
                                                   Max.-Head-Change                         Max.-Flux-Residual
  Residual-Control   Outer-Iter.   Inner-Iter.     Column Row Layer    Maximum-Head-Change  Column Row Layer    Maximum-Flux-Residual          L2-NORM 
          0                 1           2             4    7     1      -0.1635824709E+00       4    7    1        -0.8553787890E+01      0.2003949333E+02
          0                 2           2             5    8     1      -0.1616477678E-02       5    8    1        -0.8942412899E-01      0.2488777271E+00
          0                 3           2             4    7     1      -0.6115557546E-01       4    7    1        -0.3193013356E+01      0.7811218536E+01
          0                 4           2             4    7     1      -0.2739778178E-02       5    8    1        -0.1436198968E+00      0.3512826962E+00
          0                 5           2             4    7     1      -0.7572197150E-03       4    7    1        -0.3953519207E-01      0.9674153237E-01
          0                 6           1             4    7     1       0.5954879537E-04       4    7    1         0.3196392394E-02      0.7821413097E-02

    ------------------------------------------------
       NWT REQUIRED            6 OUTER ITERATIONS 
       AND A TOTAL OF         11 INNER ITERATIONS.
    ------------------------------------------------

 OUTPUT CONTROL FOR STRESS PERIOD   20   TIME STEP    1
    PRINT BUDGET
    SAVE BUDGET
    SAVE BUDGET
    SAVE HEAD FOR ALL LAYERS
 UBDSV1 SAVING "         STORAGE" ON UNIT 102 AT TIME STEP  1, STRESS PERIOD  20
 UBDSV2 SAVING "   CONSTANT HEAD" ON UNIT 102 AT TIME STEP  1, STRESS PERIOD  20
 UBDSV1 SAVING "FLOW RIGHT FACE " ON UNIT 102 AT TIME STEP  1, STRESS PERIOD  20
 UBDSV1 SAVING "FLOW FRONT FACE " ON UNIT 102 AT TIME STEP  1, STRESS PERIOD  20

  HEAD DEP BOUNDS   PERIOD   20   STEP     1
 BOUNDARY      1   LAYER   1   ROW    13   COL     1   RATE   -0.295978    
 BOUNDARY      2   LAYER   1   ROW    14   COL     9   RATE    0.285505    



 STREAM LISTING     PERIOD     20   STEP        1

 LAYER ROW COL. STREAM  RCH.  FLOW INTO     FLOW TO   FLOW OUT OF   OVRLND.     DIRECT     STREAM       STREAM     STREAM     STREAM   STREAMBED  STREAMBED
                SEG.NO.  NO.  STRM. RCH.    AQUIFER    STRM. RCH.    RUNOFF     PRECIP       ET          HEAD       DEPTH      WIDTH   CONDCTNC.   GRADIENT

   1    1    1     1     1    5.4001E+01  3.5066E-01   5.3650E+01  0.000E+00  0.000E+00  0.000E+00  1.09450E+03  1.450E+00  1.751E+01  7.879E-02  1.483E+00
   1    2    2     1     2    5.3650E+01  5.4294E-01   5.3107E+01  0.000E+00  0.000E+00  0.000E+00  1.08950E+03  1.445E+00  1.745E+01  1.222E-01  1.482E+00
   1    3    3     1     3    5.3107E+01  4.6294E-01   5.2644E+01  0.000E+00  0.000E+00  0.000E+00  1.08386E+03  1.438E+00  1.739E+01  1.043E-01  1.479E+00
   1    3    4     1     4    5.2644E+01  4.2621E-01   5.2218E+01  0.000E+00  0.000E+00  0.000E+00  1.07884E+03  1.432E+00  1.733E+01  9.616E-02  1.477E+00
   1    4    5     2     1    5.0218E+01  3.7682E-01   4.9841E+01  0.000E+00  0.000E+00  0.000E+00  1.07376E+03  1.831E+00  1.200E+01  7.800E-02  1.610E+00
   1    5    6     2     2    4.9841E+01  2.8942E-01   4.9552E+01  0.000E+00  0.000E+00  0.000E+00  1.06833E+03  1.824E+00  1.200E+01  6.000E-02  1.608E+00
   1    6    6     2     3    4.9552E+01  2.8904E-01   4.9263E+01  0.000E+00  0.000E+00  0.000E+00  1.06361E+03  1.817E+00  1.200E+01  6.000E-02  1.606E+00
   1    7    6     2     4    4.9263E+01  2.8865E-01   4.8974E+01  0.000E+00  0.000E+00  0.000E+00  1.05889E+03  1.811E+00  1.200E+01  6.000E-02  1.604E+00
   1    8    6     2     5    4.8974E+01  2.8827E-01   4.8686E+01  0.000E+00  0.000E+00  0.000E+00  1.05416E+03  1.804E+00  1.200E+01  6.000E-02  1.601E+00
   1    3    5     3     1    2.0000E+00  2.8252E-01   1.7175E+00  0.000E+00  0.000E+00  0.000E+00  1.07555E+03  1.909E+00  9.636E+00  7.227E-02  1.955E+00
   1    3    6     3     2    1.7175E+00  2.4905E-01   1.4684E+00  0.000E+00  0.000E+00  0.000E+00  1.07264E+03  1.727E+00  8.909E+00  6.682E-02  1.864E+00
   1    3    7     3     3    1.4684E+00  1.9718E-01   1.2712E+00  0.000E+00  0.000E+00  0.000E+00  1.06987E+03  1.555E+00  8.218E+00  5.547E-02  1.777E+00
   1    4    8     3     4    1.2712E+00  2.2567E-01   1.0456E+00  0.000E+00  0.000E+00  0.000E+00  1.06682E+03  1.364E+00  7.455E+00  6.709E-02  1.682E+00
   1    5    8     3     5    1.0456E+00  1.5790E-01   8.8768E-01  0.000E+00  0.000E+00  0.000E+00  1.06362E+03  1.164E+00  6.655E+00  4.991E-02  1.582E+00
   1    6    8     3     6    8.8768E-01  5.5980E-02   8.3170E-01  0.000E+00  0.000E+00  0.000E+00  1.06158E+03  1.036E+00  6.145E+00  1.844E-02  1.518E+00
   1    5   10     4     1    1.0000E+01  9.0919E-02   9.9091E+00  0.000E+00  0.000E+00  0.000E+00  1.07836E+03  6.368E-01  1.000E+01  2.500E-02  1.212E+00
   1    5    9     4     2    9.9091E+00  1.8158E-01   9.7275E+00  0.000E+00  0.000E+00  0.000E+00  1.07154E+03  6.315E-01  1.000E+01  5.000E-02  1.211E+00
   1    6    8     4     3    9.7275E+00  1.2689E-01   9.6006E+00  0.000E+00  0.000E+00  0.000E+00  1.06381E+03  6.256E-01  1.000E+01  3.500E-02  1.209E+00
   1    6    8     5     1    1.0432E+01  2.2686E-01   1.0205E+01  0.000E+00  0.000E+00  0.000E+00  1.05868E+03  6.790E-01  1.542E+01  6.166E-02  1.226E+00
   1    7    7     5     2    1.0205E+01  2.7894E-01   9.9265E+00  0.000E+00  0.000E+00  0.000E+00  1.05417E+03  6.732E-01  1.519E+01  7.594E-02  1.224E+00
   1    8    7     5     3    9.9265E+00  1.9221E-01   9.7343E+00  0.000E+00  0.000E+00  0.000E+00  1.04992E+03  6.676E-01  1.497E+01  5.241E-02  1.223E+00
   1    8    6     5     4    9.7343E+00  1.3577E-01   9.5985E+00  0.000E+00  0.000E+00  0.000E+00  1.04691E+03  6.637E-01  1.482E+01  3.706E-02  1.221E+00
   1    9    6     6     1    5.8284E+01  3.0156E-01   5.7983E+01  0.000E+00  0.000E+00  0.000E+00  1.04475E+03  2.026E+00  1.200E+01  6.000E-02  1.675E+00
   1   10    7     6     2    5.7983E+01  3.0118E-01   5.7682E+01  0.000E+00  0.000E+00  0.000E+00  1.04020E+03  2.020E+00  1.200E+01  6.000E-02  1.673E+00
   1   11    7     6     3    5.7682E+01  3.0080E-01   5.7381E+01  0.000E+00  0.000E+00  0.000E+00  1.03565E+03  2.013E+00  1.200E+01  6.000E-02  1.671E+00
   1   12    7     6     4    5.7381E+01  3.0042E-01   5.7080E+01  0.000E+00  0.000E+00  0.000E+00  1.03110E+03  2.007E+00  1.200E+01  6.000E-02  1.669E+00
   1   13    7     6     5    5.7080E+01  1.9775E-02   5.7061E+01  0.000E+00  0.000E+00  0.000E+00  1.02791E+03  2.004E+00  1.200E+01  2.400E-02  2.747E-01
   1   14    9     7     1    1.5000E+02  1.3321E+00   1.4867E+02  0.000E+00  0.000E+00  0.000E+00  1.03987E+03  2.288E+00  5.529E+01  5.593E-01  7.939E-01
   1   13    8     7     2    1.4867E+02  1.8285E+00   1.4684E+02  0.000E+00  0.000E+00  0.000E+00  1.03478E+03  2.279E+00  5.526E+01  6.148E-01  9.914E-01
   1   13    7     7     3    1.4684E+02  1.4526E+00   1.4539E+02  0.000E+00  0.000E+00  0.000E+00  1.02969E+03  2.271E+00  5.522E+01  5.585E-01  8.671E-01
   1   13    6     8     1    2.0245E+02  1.0334E+00   2.0141E+02  0.000E+00  0.000E+00  0.000E+00  1.02502E+03  3.149E+00  4.566E+01  4.653E-01  7.403E-01
   1   13    5     8     2    2.0141E+02  2.3808E-01   2.0118E+02  0.000E+00  0.000E+00  0.000E+00  1.01877E+03  3.145E+00  4.561E+01  4.648E-01  1.708E-01
   1   13    4     8     3    2.0118E+02 -2.2506E+00   2.0343E+02  0.000E+00  0.000E+00  0.000E+00  1.01253E+03  3.151E+00  4.569E+01  4.656E+00 -1.611E-01
   1   13    3     8     4    2.0343E+02 -3.4343E+00   2.0686E+02  0.000E+00  0.000E+00  0.000E+00  1.00629E+03  3.168E+00  4.593E+01  4.681E+00 -2.446E-01
   1   13    2     8     5    2.0686E+02 -2.6034E+00   2.0946E+02  0.000E+00  0.000E+00  0.000E+00  1.00006E+03  3.185E+00  4.618E+01  4.706E+00 -1.844E-01
   1   13    1     8     6    2.0946E+02 -2.0289E+00   2.1149E+02  0.000E+00  0.000E+00  0.000E+00  9.95073E+02  3.198E+00  4.638E+01  2.836E+00 -2.385E-01



 UBDSV3 SAVING "           GW ET" ON UNIT  61 AT TIME STEP  1, STRESS PERIOD  20
 UBDSV3 SAVING "    UZF RECHARGE" ON UNIT  61 AT TIME STEP  1, STRESS PERIOD  20
 UBDSV3 SAVING " SURFACE LEAKAGE" ON UNIT  61 AT TIME STEP  1, STRESS PERIOD  20
 UBDSV3 SAVING "       HORT+DUNN" ON UNIT  61 AT TIME STEP  1, STRESS PERIOD  20
 UBDSV3 SAVING "  STORAGE CHANGE" ON UNIT  61 AT TIME STEP  1, STRESS PERIOD  20


UNSATURATED ZONE PACKAGE VOLUMETRIC BUDGET FOR  TIME STEP     1 STRESS PERIOD   20
  ------------------------------------------------------------------------------



     CUMULATIVE VOLUMES      L**3       RATES FOR THIS TIME STEP      L**3/T
     ------------------                 ------------------------

           IN:                                      IN:
           ---                                      ---
        INFILTRATION =   612742253.4569          INFILTRATION =          88.3416

          OUT:                                     OUT:
          ----                                     ----
              UZF ET =   537866263.8103                UZF ET =          60.8175
        UZF RECHARGE =    72392846.7693          UZF RECHARGE =       0.0000E+00

            IN - OUT =     2483142.8774              IN - OUT =          27.5241

          STORAGE:                                 STORAGE:
          --------                                 --------
      STORAGE CHANGE =     2483149.2639        STORAGE CHANGE =          27.5241

 PERCENT DISCREPANCY IS DIFFERENCE BETWEEN IN-OUT MINUS CHANGE IN STORAGE
 DIVIDED BY THE AVERAGE OF IN AND OUT TIMES 100

 PERCENT DISCREPANCY =           0.00     PERCENT DISCREPANCY =          -0.00






 

            AG WELLS      PERIOD   20   STEP   1
 AG WELL      1   LAYER   1   ROW     6   COL     4   RATE    -14.5824    
 AG WELL      2   LAYER   1   ROW     6   COL     5   RATE    -14.5824    
 AG WELL      3   LAYER   1   ROW     7   COL     4   RATE    -14.5824    
 AG WELL      4   LAYER   1   ROW     7   COL     5   RATE    -14.5824    
 AG WELL      5   LAYER   1   ROW     8   COL     4   RATE    -14.5824    
 AG WELL      6   LAYER   1   ROW     8   COL     5   RATE    -14.5824    
 
 

        GW IRRIGATION     PERIOD   20   STEP   1
 AG WELL      1   ROW     6   COL     4   RATE     14.5824    
 AG WELL      2   ROW     6   COL     5   RATE     14.5824    
 AG WELL      3   ROW     7   COL     4   RATE     14.5824    
 AG WELL      4   ROW     7   COL     5   RATE     14.5824    
 AG WELL      5   ROW     8   COL     4   RATE     14.5824    
 AG WELL      6   ROW     8   COL     5   RATE     14.5824    
 
1
  VOLUMETRIC BUDGET FOR AGRICULTURAL FIELDS AT  END OF TIME STEP    1, STRESS PERIOD  20
  ------------------------------------------------------------------------------

     CUMULATIVE VOLUMES      L**3       RATES FOR THIS TIME STEP      L**3/T
     ------------------                 ------------------------

           IN:                                      IN:
           ---                                      ---
               AG WELLS  =   572473088.0000                 AG WELLS  =          87.4941
      DIVERSION SEGMENTS =           0.0000        DIVERSION SEGMENTS =           0.0000
           GW IRRIGATION =           0.0000             GW IRRIGATION =           0.0000
           SW IRRIGATION =           0.0000             SW IRRIGATION =           0.0000
        SYSTEM LOSSES GW =           0.0000          SYSTEM LOSSES GW =           0.0000
        SYSTEM LOSSES SW =           0.0000          SYSTEM LOSSES SW =           0.0000

                TOTAL IN =   572473088.0000                  TOTAL IN =          87.4941

          OUT:                                     OUT:
          ----                                     ----
               AG WELLS  =           0.0000                 AG WELLS  =           0.0000
      DIVERSION SEGMENTS =           0.0000        DIVERSION SEGMENTS =           0.0000
           GW IRRIGATION =   572473088.0000             GW IRRIGATION =          87.4941
           SW IRRIGATION =           0.0000             SW IRRIGATION =           0.0000
        SYSTEM LOSSES GW =           0.0000          SYSTEM LOSSES GW =           0.0000
        SYSTEM LOSSES SW =           0.0000          SYSTEM LOSSES SW =           0.0000

               TOTAL OUT =   572473088.0000                 TOTAL OUT =          87.4941

                IN - OUT =           0.0000                  IN - OUT =           0.0000

     PERCENT DISCREPANCY =           0.00         PERCENT DISCREPANCY =           0.00




 HEAD WILL BE SAVED ON UNIT   62 AT END OF TIME STEP    1, STRESS PERIOD   20
1
  VOLUMETRIC BUDGET FOR ENTIRE MODEL AT END OF TIME STEP    1, STRESS PERIOD  20
  ------------------------------------------------------------------------------

     CUMULATIVE VOLUMES      L**3       RATES FOR THIS TIME STEP      L**3/T
     ------------------                 ------------------------

           IN:                                      IN:
           ---                                      ---
             STORAGE     =   720978304.0000               STORAGE     =          86.0813
       CONSTANT HEAD     =           0.0000         CONSTANT HEAD     =           0.0000
     HEAD DEP BOUNDS     =    13561294.0000       HEAD DEP BOUNDS     =           0.2855
      STREAM LEAKAGE     =   597322880.0000        STREAM LEAKAGE     =          12.8249
        UZF RECHARGE     =    72392816.0000          UZF RECHARGE     =           0.0000
               GW ET     =           0.0000                 GW ET     =           0.0000
     SURFACE LEAKAGE     =           0.0000       SURFACE LEAKAGE     =           0.0000
           AG WELLS      =           0.0000             AG WELLS      =           0.0000

                TOTAL IN =  1404255360.0000                  TOTAL IN =          99.1917

          OUT:                                     OUT:
          ----                                     ----
             STORAGE     =   312038528.0000               STORAGE     =           0.3654
       CONSTANT HEAD     =           0.0000         CONSTANT HEAD     =           0.0000
     HEAD DEP BOUNDS     =    14004762.0000       HEAD DEP BOUNDS     =           0.2960
      STREAM LEAKAGE     =   489194240.0000        STREAM LEAKAGE     =          10.3172
        UZF RECHARGE     =           0.0000          UZF RECHARGE     =           0.0000
               GW ET     =    16548663.0000                 GW ET     =           0.7203
     SURFACE LEAKAGE     =           0.0000       SURFACE LEAKAGE     =           0.0000
           AG WELLS      =   572473088.0000             AG WELLS      =          87.4941

               TOTAL OUT =  1404259328.0000                 TOTAL OUT =          99.1930

                IN - OUT =       -3968.0000                  IN - OUT =      -1.3046E-03

     PERCENT DISCREPANCY =          -0.00         PERCENT DISCREPANCY =          -0.00






         TIME SUMMARY AT END OF TIME STEP    1 IN STRESS PERIOD   20
                    SECONDS     MINUTES      HOURS       DAYS        YEARS
                    -----------------------------------------------------------
   TIME STEP LENGTH  87667.      1461.1      24.352      1.0147     2.77799E-03
 STRESS PERIOD TIME  87667.      1461.1      24.352      1.0147     2.77799E-03
         TOTAL TIME 4.75142E+07 7.91903E+05  13198.      549.93      1.5056    
1
 
 SOLVING FOR HEAD 
                                                   Max.-Head-Change                         Max.-Flux-Residual
  Residual-Control   Outer-Iter.   Inner-Iter.     Column Row Layer    Maximum-Head-Change  Column Row Layer    Maximum-Flux-Residual          L2-NORM 
          0                 1           2             4    7     1      -0.1620278676E+00       4    7    1        -0.8477523559E+01      0.1953732087E+02
          0                 2           2             5    8     1      -0.2239850352E-02       5    8    1        -0.1237730938E+00      0.3160371478E+00
          0                 3           2             4    7     1      -0.6114018395E-01       4    7    1        -0.3192251867E+01      0.7805728050E+01
          0                 4           2             4    7     1      -0.2741340910E-02       5    8    1        -0.1439598778E+00      0.3518272867E+00
          0                 5           2             4    7     1      -0.7570661725E-03       4    7    1        -0.3952760258E-01      0.9668697649E-01
          0                 6           1             4    7     1       0.5953382258E-04       4    7    1         0.3195633799E-02      0.7815959442E-02

    ------------------------------------------------
       NWT REQUIRED            6 OUTER ITERATIONS 
       AND A TOTAL OF         11 INNER ITERATIONS.
    ------------------------------------------------

 NO OUTPUT CONTROL FOR STRESS PERIOD   20   TIME STEP    2
 
 SOLVING FOR HEAD 
                                                   Max.-Head-Change                         Max.-Flux-Residual
  Residual-Control   Outer-Iter.   Inner-Iter.     Column Row Layer    Maximum-Head-Change  Column Row Layer    Maximum-Flux-Residual          L2-NORM 
          0                 1           2             4    7     1      -0.1603945569E+00       4    7    1        -0.8396748603E+01      0.1906664017E+02
          0                 2           2             5    8     1      -0.2828304905E-02       5    8    1        -0.1561678665E+00      0.3829577617E+00
          0                 3           2             4    7     1      -0.6112401758E-01       4    7    1        -0.3191445271E+01      0.7800428662E+01
          0                 4           2             4    7     1      -0.2742982877E-02       5    8    1        -0.1442805674E+00      0.3523533625E+00
          0                 5           2             4    7     1      -0.7569049121E-03       4    7    1        -0.3951956160E-01      0.9663429813E-01
          0                 6           1             4    7     1       0.5951809633E-04       4    7    1         0.3194830070E-02      0.7810693563E-02

    ------------------------------------------------
       NWT REQUIRED            6 OUTER ITERATIONS 
       AND A TOTAL OF         11 INNER ITERATIONS.
    ------------------------------------------------

 NO OUTPUT CONTROL FOR STRESS PERIOD   20   TIME STEP    3
 
 SOLVING FOR HEAD 
                                                   Max.-Head-Change                         Max.-Flux-Residual
  Residual-Control   Outer-Iter.   Inner-Iter.     Column Row Layer    Maximum-Head-Change  Column Row Layer    Maximum-Flux-Residual          L2-NORM 
          0                 1           2             4    7     1      -0.1586902365E+00       4    7    1        -0.8311886367E+01      0.1862435537E+02
          0                 2           2             5    8     1      -0.3384285863E-02       5    8    1        -0.1867465833E+00      0.4479137435E+00
          0                 3           2             4    7     1      -0.6110715238E-01       4    7    1        -0.3190597799E+01      0.7795310968E+01
          0                 4           2             4    7     1      -0.2744696338E-02       5    8    1        -0.1445833275E+00      0.3528617623E+00
          0                 5           2             4    7     1      -0.7567366906E-03       4    7    1        -0.3951111142E-01      0.9658340758E-01
          0                 6           1             4    7     1       0.5950168996E-04       4    7    1         0.3193985382E-02      0.7805606232E-02

    ------------------------------------------------
       NWT REQUIRED            6 OUTER ITERATIONS 
       AND A TOTAL OF         11 INNER ITERATIONS.
    ------------------------------------------------

 NO OUTPUT CONTROL FOR STRESS PERIOD   20   TIME STEP    4
 
 SOLVING FOR HEAD 
                                                   Max.-Head-Change                         Max.-Flux-Residual
  Residual-Control   Outer-Iter.   Inner-Iter.     Column Row Layer    Maximum-Head-Change  Column Row Layer    Maximum-Flux-Residual          L2-NORM 
          0                 1           2             4    7     1      -0.1569220165E+00       4    7    1        -0.8223328609E+01      0.1820800107E+02
          0                 2           2             5    8     1      -0.3910095549E-02       5    8    1        -0.2156391348E+00      0.5104110038E+00
          0                 3           2             4    7     1      -0.6108965855E-01       4    7    1        -0.3189713366E+01      0.7790365958E+01
          0                 4           2             4    7     1      -0.2746474147E-02       5    8    1        -0.1448694395E+00      0.3533533061E+00
          0                 5           2             4    7     1      -0.7565622085E-03       4    7    1        -0.3950229120E-01      0.9653421799E-01
          0                 6           1             4    7     1       0.5948467220E-04       4    7    1         0.3193103683E-02      0.7800689016E-02

    ------------------------------------------------
       NWT REQUIRED            6 OUTER ITERATIONS 
       AND A TOTAL OF         11 INNER ITERATIONS.
    ------------------------------------------------

 NO OUTPUT CONTROL FOR STRESS PERIOD   20   TIME STEP    5
 
 SOLVING FOR HEAD 
                                                   Max.-Head-Change                         Max.-Flux-Residual
  Residual-Control   Outer-Iter.   Inner-Iter.     Column Row Layer    Maximum-Head-Change  Column Row Layer    Maximum-Flux-Residual          L2-NORM 
          0                 1           2             4    7     1      -0.1550968421E+00       4    7    1        -0.8131458602E+01      0.1781553611E+02
          0                 2           2             5    8     1      -0.4407793281E-02       5    8    1        -0.2429617562E+00      0.5703536694E+00
          0                 3           2             4    7     1      -0.6107160467E-01       4    7    1        -0.3188795804E+01      0.7785585502E+01
          0                 4           2             4    7     1      -0.2748309317E-02       5    8    1        -0.1451400492E+00      0.3538287429E+00
          0                 5           2             4    7     1      -0.7563821495E-03       4    7    1        -0.3949313922E-01      0.9648665130E-01
          0                 6           1             4    7     1       0.5946711020E-04       4    7    1         0.3192188816E-02      0.7795933926E-02

    ------------------------------------------------
       NWT REQUIRED            6 OUTER ITERATIONS 
       AND A TOTAL OF         11 INNER ITERATIONS.
    ------------------------------------------------

 NO OUTPUT CONTROL FOR STRESS PERIOD   20   TIME STEP    6
 
 SOLVING FOR HEAD 
                                                   Max.-Head-Change                         Max.-Flux-Residual
  Residual-Control   Outer-Iter.   Inner-Iter.     Column Row Layer    Maximum-Head-Change  Column Row Layer    Maximum-Flux-Residual          L2-NORM 
          0                 1           2             4    7     1      -0.1532210966E+00       4    7    1        -0.8036629078E+01      0.1744515424E+02
          0                 2           2             5    8     1      -0.4879343167E-02       5    8    1        -0.2688251474E+00      0.6277902550E+00
          0                 3           2             4    7     1      -0.6105305377E-01       4    7    1        -0.3187848638E+01      0.7780961698E+01
          0                 4           2             4    7     1      -0.2750195434E-02       5    8    1        -0.1453962491E+00      0.3542888104E+00
          0                 5           2             4    7     1      -0.7561971413E-03       4    7    1        -0.3948369073E-01      0.9644062963E-01
          0                 6           1             4    7     1       0.5944906491E-04       4    7    1         0.3191244286E-02      0.7791333278E-02

    ------------------------------------------------
       NWT REQUIRED            6 OUTER ITERATIONS 
       AND A TOTAL OF         11 INNER ITERATIONS.
    ------------------------------------------------

 NO OUTPUT CONTROL FOR STRESS PERIOD   20   TIME STEP    7
 
 SOLVING FOR HEAD 
                                                   Max.-Head-Change                         Max.-Flux-Residual
  Residual-Control   Outer-Iter.   Inner-Iter.     Column Row Layer    Maximum-Head-Change  Column Row Layer    Maximum-Flux-Residual          L2-NORM 
          0                 1           2             4    7     1      -0.1513007599E+00       4    7    1        -0.7939170976E+01      0.1709526913E+02
          0                 2           2             5    8     1      -0.5326499715E-02       5    8    1        -0.2933280099E+00      0.6827151509E+00
          0                 3           2             4    7     1      -0.6103406483E-01       4    7    1        -0.3186875176E+01      0.7776487213E+01
          0                 4           2             4    7     1      -0.2752126499E-02       5    8    1        -0.1456390127E+00      0.3547342030E+00
          0                 5           2             4    7     1      -0.7560077728E-03       4    7    1        -0.3947397883E-01      0.9639608190E-01
          0                 6           1             4    7     1       0.5943059325E-04       4    7    1         0.3190273406E-02      0.7786879977E-02

    ------------------------------------------------
       NWT REQUIRED            6 OUTER ITERATIONS 
       AND A TOTAL OF         11 INNER ITERATIONS.
    ------------------------------------------------

 NO OUTPUT CONTROL FOR STRESS PERIOD   20   TIME STEP    8
 
 SOLVING FOR HEAD 
                                                   Max.-Head-Change                         Max.-Flux-Residual
  Residual-Control   Outer-Iter.   Inner-Iter.     Column Row Layer    Maximum-Head-Change  Column Row Layer    Maximum-Flux-Residual          L2-NORM 
          0                 1           2             4    7     1      -0.1493414260E+00       4    7    1        -0.7839394397E+01      0.1676447187E+02
          0                 2           2             5    8     1      -0.5750933250E-02       5    8    1        -0.3165650340E+00      0.7355739739E+00
          0                 3           2             4    7     1      -0.6101469334E-01       4    7    1        -0.3185878518E+01      0.7772155437E+01
          0                 4           2             4    7     1      -0.2754096840E-02       5    8    1        -0.1458692725E+00      0.3551655167E+00
          0                 5           2             4    7     1      -0.7558145960E-03       4    7    1        -0.3946403447E-01      0.9635294645E-01
          0                 6           1             4    7     1       0.5941174947E-04       4    7    1         0.3189279264E-02      0.7782567794E-02

    ------------------------------------------------
       NWT REQUIRED            6 OUTER ITERATIONS 
       AND A TOTAL OF         11 INNER ITERATIONS.
    ------------------------------------------------

 NO OUTPUT CONTROL FOR STRESS PERIOD   20   TIME STEP    9
 
 SOLVING FOR HEAD 
                                                   Max.-Head-Change                         Max.-Flux-Residual
  Residual-Control   Outer-Iter.   Inner-Iter.     Column Row Layer    Maximum-Head-Change  Column Row Layer    Maximum-Flux-Residual          L2-NORM 
          0                 1           2             4    7     1      -0.1473484432E+00       4    7    1        -0.7737596439E+01      0.1645146028E+02
          0                 2           2             5    8     1      -0.6154134904E-02       5    8    1        -0.3386195079E+00      0.7861674294E+00
          0                 3           2             4    7     1      -0.6099499175E-01       4    7    1        -0.3184861632E+01      0.7767959614E+01
          0                 4           2             4    7     1      -0.2756101124E-02       5    8    1        -0.1460878521E+00      0.3555834319E+00
          0                 5           2             4    7     1      -0.7556181351E-03       4    7    1        -0.3945388741E-01      0.9631115414E-01
          0                 6           1             4    7     1       0.5939258505E-04       4    7    1         0.3188264857E-02      0.7778389779E-02

    ------------------------------------------------
       NWT REQUIRED            6 OUTER ITERATIONS 
       AND A TOTAL OF         11 INNER ITERATIONS.
    ------------------------------------------------

 NO OUTPUT CONTROL FOR STRESS PERIOD   20   TIME STEP   10
 
 SOLVING FOR HEAD 
                                                   Max.-Head-Change                         Max.-Flux-Residual
  Residual-Control   Outer-Iter.   Inner-Iter.     Column Row Layer    Maximum-Head-Change  Column Row Layer    Maximum-Flux-Residual          L2-NORM 
          0                 1           2             4    7     1      -0.1453266779E+00       4    7    1        -0.7634047271E+01      0.1615501017E+02
          0                 2           2             5    8     1      -0.6537534158E-02       5    8    1        -0.3595720683E+00      0.8347127140E+00
          0                 3           2             4    7     1      -0.6097500824E-01       4    7    1        -0.3183827220E+01      0.7763893775E+01
          0                 4           2             4    7     1      -0.2758134443E-02       5    8    1        -0.1462955465E+00      0.3559885059E+00
          0                 5           2             4    7     1      -0.7554188692E-03       4    7    1        -0.3944356458E-01      0.9627064766E-01
          0                 6           1             4    7     1       0.5937314619E-04       4    7    1         0.3187232863E-02      0.7774340196E-02

    ------------------------------------------------
       NWT REQUIRED            6 OUTER ITERATIONS 
       AND A TOTAL OF         11 INNER ITERATIONS.
    ------------------------------------------------

 NO OUTPUT CONTROL FOR STRESS PERIOD   20   TIME STEP   11
 
 SOLVING FOR HEAD 
                                                   Max.-Head-Change                         Max.-Flux-Residual
  Residual-Control   Outer-Iter.   Inner-Iter.     Column Row Layer    Maximum-Head-Change  Column Row Layer    Maximum-Flux-Residual          L2-NORM 
          0                 1           2             4    7     1      -0.1432809178E+00       4    7    1        -0.7529013728E+01      0.1587401708E+02
          0                 2           2             5    8     1      -0.6902412108E-02       5    8    1        -0.3794946821E+00      0.8813235598E+00
          0                 3           2             4    7     1      -0.6095479006E-01       4    7    1        -0.3182777949E+01      0.7759952097E+01
          0                 4           2             4    7     1      -0.2760191982E-02       5    8    1        -0.1464930657E+00      0.3563812992E+00
          0                 5           2             4    7     1      -0.7552172695E-03       4    7    1        -0.3943309268E-01      0.9623137006E-01
          0                 6           1             4    7     1       0.5935347925E-04       4    7    1         0.3186185948E-02      0.7770413311E-02

    ------------------------------------------------
       NWT REQUIRED            6 OUTER ITERATIONS 
       AND A TOTAL OF         11 INNER ITERATIONS.
    ------------------------------------------------

 NO OUTPUT CONTROL FOR STRESS PERIOD   20   TIME STEP   12
 
 SOLVING FOR HEAD 
                                                   Max.-Head-Change                         Max.-Flux-Residual
  Residual-Control   Outer-Iter.   Inner-Iter.     Column Row Layer    Maximum-Head-Change  Column Row Layer    Maximum-Flux-Residual          L2-NORM 
          0                 1           2             4    7     1      -0.1412150854E+00       4    7    1        -0.7422714813E+01      0.1560747765E+02
          0                 2           2             5    8     1      -0.7249964422E-02       5    8    1        -0.3984545581E+00      0.9261074521E+00
          0                 3           2             4    7     1      -0.6093437594E-01       4    7    1        -0.3181716008E+01      0.7756129169E+01
          0                 4           2             4    7     1      -0.2762269797E-02       5    8    1        -0.1466810729E+00      0.3567623342E+00
          0                 5           2             4    7     1      -0.7550137226E-03       4    7    1        -0.3942249362E-01      0.9619326840E-01
          0                 6           1             4    7     1       0.5933362169E-04       4    7    1         0.3185126310E-02      0.7766604503E-02

    ------------------------------------------------
       NWT REQUIRED            6 OUTER ITERATIONS 
       AND A TOTAL OF         11 INNER ITERATIONS.
    ------------------------------------------------

 NO OUTPUT CONTROL FOR STRESS PERIOD   20   TIME STEP   13
 
 SOLVING FOR HEAD 
                                                   Max.-Head-Change                         Max.-Flux-Residual
  Residual-Control   Outer-Iter.   Inner-Iter.     Column Row Layer    Maximum-Head-Change  Column Row Layer    Maximum-Flux-Residual          L2-NORM 
          0                 1           2             4    7     1      -0.1391334832E+00       4    7    1        -0.7315390365E+01      0.1535446470E+02
          0                 2           2             5    8     1      -0.7581309261E-02       5    8    1        -0.4165144752E+00      0.9691646767E+00
          0                 3           2             4    7     1      -0.6091380832E-01       4    7    1        -0.3180643795E+01      0.7752419879E+01
          0                 4           2             4    7     1      -0.2764363560E-02       5    8    1        -0.1468601874E+00      0.3571321066E+00
          0                 5           2             4    7     1      -0.7548086515E-03       4    7    1        -0.3941179138E-01      0.9615629238E-01
          0                 6           1             4    7     1       0.5931361511E-04       4    7    1         0.3184056360E-02      0.7762907321E-02

    ------------------------------------------------
       NWT REQUIRED            6 OUTER ITERATIONS 
       AND A TOTAL OF         11 INNER ITERATIONS.
    ------------------------------------------------

 NO OUTPUT CONTROL FOR STRESS PERIOD   20   TIME STEP   14
 
 SOLVING FOR HEAD 
                                                   Max.-Head-Change                         Max.-Flux-Residual
  Residual-Control   Outer-Iter.   Inner-Iter.     Column Row Layer    Maximum-Head-Change  Column Row Layer    Maximum-Flux-Residual          L2-NORM 
          0                 1           2             4    7     1      -0.1370397016E+00       4    7    1        -0.7207241543E+01      0.1511412528E+02
          0                 2           2             5    8     1      -0.7897466580E-02       5    8    1        -0.4337316284E+00      0.1010591247E+01
          0                 3           2             4    7     1      -0.6089312264E-01       4    7    1        -0.3179563320E+01      0.7748819314E+01
          0                 4           2             4    7     1      -0.2766469661E-02       5    8    1        -0.1470309740E+00      0.3574910951E+00
          0                 5           2             4    7     1      -0.7546024083E-03       4    7    1        -0.3940100602E-01      0.9612039393E-01
          0                 6           1             4    7     1       0.5929349310E-04       4    7    1         0.3182978066E-02      0.7759318248E-02

    ------------------------------------------------
       NWT REQUIRED            6 OUTER ITERATIONS 
       AND A TOTAL OF         11 INNER ITERATIONS.
    ------------------------------------------------

 NO OUTPUT CONTROL FOR STRESS PERIOD   20   TIME STEP   15
 
 SOLVING FOR HEAD 
                                                   Max.-Head-Change                         Max.-Flux-Residual
  Residual-Control   Outer-Iter.   Inner-Iter.     Column Row Layer    Maximum-Head-Change  Column Row Layer    Maximum-Flux-Residual          L2-NORM 
          0                 1           2             4    7     1      -0.1349371965E+00       4    7    1        -0.7098461769E+01      0.1488566755E+02
          0                 2           2             5    8     1      -0.8199407456E-02       5    8    1        -0.4501604670E+00      0.1050473904E+01
          0                 3           2             4    7     1      -0.6087235300E-01       4    7    1        -0.3178476517E+01      0.7745322928E+01
          0                 4           2             4    7     1      -0.2768584624E-02       5    8    1        -0.1471939701E+00      0.3578397429E+00
          0                 5           2             4    7     1      -0.7543953340E-03       4    7    1        -0.3939015691E-01      0.9608552837E-01
          0                 6           1             4    7     1       0.5927329019E-04       4    7    1         0.3181893409E-02      0.7755832357E-02

    ------------------------------------------------
       NWT REQUIRED            6 OUTER ITERATIONS 
       AND A TOTAL OF         11 INNER ITERATIONS.
    ------------------------------------------------

 NO OUTPUT CONTROL FOR STRESS PERIOD   20   TIME STEP   16
 
 SOLVING FOR HEAD 
                                                   Max.-Head-Change                         Max.-Flux-Residual
  Residual-Control   Outer-Iter.   Inner-Iter.     Column Row Layer    Maximum-Head-Change  Column Row Layer    Maximum-Flux-Residual          L2-NORM 
          0                 1           2             4    7     1      -0.1328291601E+00       4    7    1        -0.6989230210E+01      0.1466837809E+02
          0                 2           2             5    8     1      -0.8487987874E-02       5    8    1        -0.4658489974E+00      0.1088897919E+01
          0                 3           2             4    7     1      -0.6085153089E-01       4    7    1        -0.3177385177E+01      0.7741926351E+01
          0                 4           2             4    7     1      -0.2770705235E-02       5    8    1        -0.1473496493E+00      0.3581784779E+00
          0                 5           2             4    7     1      -0.7541877427E-03       4    7    1        -0.3937926200E-01      0.9605165274E-01
          0                 6           1             4    7     1       0.5925303619E-04       4    7    1         0.3180804167E-02      0.7752445377E-02

    ------------------------------------------------
       NWT REQUIRED            6 OUTER ITERATIONS 
       AND A TOTAL OF         11 INNER ITERATIONS.
    ------------------------------------------------

 NO OUTPUT CONTROL FOR STRESS PERIOD   20   TIME STEP   17
 
 SOLVING FOR HEAD 
                                                   Max.-Head-Change                         Max.-Flux-Residual
  Residual-Control   Outer-Iter.   Inner-Iter.     Column Row Layer    Maximum-Head-Change  Column Row Layer    Maximum-Flux-Residual          L2-NORM 
          0                 1           2             4    7     1      -0.1307184028E+00       4    7    1        -0.6879705064E+01      0.1446158148E+02
          0                 2           2             5    8     1      -0.8764043011E-02       5    8    1        -0.4808439485E+00      0.1125939986E+01
          0                 3           2             4    7     1      -0.6083068402E-01       4    7    1        -0.3176290881E+01      0.7738625466E+01
          0                 4           2             4    7     1      -0.2772828672E-02       5    8    1        -0.1474984732E+00      0.3585077040E+00
          0                 5           2             4    7     1      -0.7539799094E-03       4    7    1        -0.3936833704E-01      0.9601872647E-01
          0                 6           1             4    7     1       0.5923275773E-04       4    7    1         0.3179711905E-02      0.7749153271E-02

    ------------------------------------------------
       NWT REQUIRED            6 OUTER ITERATIONS 
       AND A TOTAL OF         11 INNER ITERATIONS.
    ------------------------------------------------

 NO OUTPUT CONTROL FOR STRESS PERIOD   20   TIME STEP   18
 
 SOLVING FOR HEAD 
                                                   Max.-Head-Change                         Max.-Flux-Residual
  Residual-Control   Outer-Iter.   Inner-Iter.     Column Row Layer    Maximum-Head-Change  Column Row Layer    Maximum-Flux-Residual          L2-NORM 
          0                 1           2             4    7     1      -0.1286077782E+00       4    7    1        -0.6770046582E+01      0.1426465998E+02
          0                 2           2             5    8     1      -0.9028331692E-02       5    8    1        -0.4951878434E+00      0.1161672429E+01
          0                 3           2             4    7     1      -0.6080984055E-01       4    7    1        -0.3175195233E+01      0.7735416395E+01
          0                 4           2             4    7     1      -0.2774952060E-02       5    8    1        -0.1476408612E+00      0.3588278026E+00
          0                 5           2             4    7     1      -0.7537721158E-03       4    7    1        -0.3935739809E-01      0.9598671144E-01
          0                 6           1             4    7     1       0.5921248330E-04       4    7    1         0.3178618257E-02      0.7745952220E-02

    ------------------------------------------------
       NWT REQUIRED            6 OUTER ITERATIONS 
       AND A TOTAL OF         11 INNER ITERATIONS.
    ------------------------------------------------

 NO OUTPUT CONTROL FOR STRESS PERIOD   20   TIME STEP   19
 
 SOLVING FOR HEAD 
                                                   Max.-Head-Change                         Max.-Flux-Residual
  Residual-Control   Outer-Iter.   Inner-Iter.     Column Row Layer    Maximum-Head-Change  Column Row Layer    Maximum-Flux-Residual          L2-NORM 
          0                 1           2             4    7     1      -0.1264996434E+00       4    7    1        -0.6660388147E+01      0.1407704189E+02
          0                 2           2             5    8     1      -0.9281572266E-02       5    8    1        -0.5089208090E+00      0.1196164185E+01
          0                 3           2             4    7     1      -0.6078902373E-01       4    7    1        -0.3174099564E+01      0.7732295393E+01
          0                 4           2             4    7     1      -0.2777073029E-02       5    8    1        -0.1477772099E+00      0.3591391425E+00
          0                 5           2             4    7     1      -0.7535645923E-03       4    7    1        -0.3934645848E-01      0.9595557070E-01
          0                 6           1             4    7     1       0.5919223392E-04       4    7    1         0.3177524501E-02      0.7742838466E-02

    ------------------------------------------------
       NWT REQUIRED            6 OUTER ITERATIONS 
       AND A TOTAL OF         11 INNER ITERATIONS.
    ------------------------------------------------

 NO OUTPUT CONTROL FOR STRESS PERIOD   20   TIME STEP   20
 
 SOLVING FOR HEAD 
                                                   Max.-Head-Change                         Max.-Flux-Residual
  Residual-Control   Outer-Iter.   Inner-Iter.     Column Row Layer    Maximum-Head-Change  Column Row Layer    Maximum-Flux-Residual          L2-NORM 
          0                 1           2             4    7     1      -0.1243964267E+00       4    7    1        -0.6550866489E+01      0.1389820211E+02
          0                 2           2             5    8     1      -0.9524416574E-02       5    8    1        -0.5220793118E+00      0.1229478049E+01
          0                 3           2             4    7     1      -0.6076825748E-01       4    7    1        -0.3173005243E+01      0.7729259025E+01
          0                 4           2             4    7     1      -0.2779189136E-02       5    8    1        -0.1479078792E+00      0.3594420627E+00
          0                 5           2             4    7     1      -0.7533575786E-03       4    7    1        -0.3933553189E-01      0.9592527044E-01
          0                 6           1             4    7     1       0.5917203466E-04       4    7    1         0.3176432072E-02      0.7739808754E-02

    ------------------------------------------------
       NWT REQUIRED            6 OUTER ITERATIONS 
       AND A TOTAL OF         11 INNER ITERATIONS.
    ------------------------------------------------

 NO OUTPUT CONTROL FOR STRESS PERIOD   20   TIME STEP   21
 
 SOLVING FOR HEAD 
                                                   Max.-Head-Change                         Max.-Flux-Residual
  Residual-Control   Outer-Iter.   Inner-Iter.     Column Row Layer    Maximum-Head-Change  Column Row Layer    Maximum-Flux-Residual          L2-NORM 
          0                 1           2             4    7     1      -0.1223002165E+00       4    7    1        -0.6441600224E+01      0.1372764016E+02
          0                 2           2             5    8     1      -0.9757455557E-02       5    8    1        -0.5346963716E+00      0.1261673711E+01
          0                 3           2             4    7     1      -0.6074756241E-01       4    7    1        -0.3171913456E+01      0.7726303898E+01
          0                 4           2             4    7     1      -0.2781298280E-02       5    8    1        -0.1480331950E+00      0.3597368986E+00
          0                 5           2             4    7     1      -0.7531512798E-03       4    7    1        -0.3932463022E-01      0.9589577712E-01
          0                 6           1             4    7     1       0.5915190413E-04       4    7    1         0.3175342098E-02      0.7736859667E-02

    ------------------------------------------------
       NWT REQUIRED            6 OUTER ITERATIONS 
       AND A TOTAL OF         11 INNER ITERATIONS.
    ------------------------------------------------

 NO OUTPUT CONTROL FOR STRESS PERIOD   20   TIME STEP   22
 
 SOLVING FOR HEAD 
                                                   Max.-Head-Change                         Max.-Flux-Residual
  Residual-Control   Outer-Iter.   Inner-Iter.     Column Row Layer    Maximum-Head-Change  Column Row Layer    Maximum-Flux-Residual          L2-NORM 
          0                 1           2             4    7     1      -0.1202127892E+00       4    7    1        -0.6332690347E+01      0.1356491186E+02
          0                 2           2             5    8     1      -0.9981294209E-02       5    8    1        -0.5468057500E+00      0.1292808867E+01
          0                 3           2             4    7     1      -0.6072695602E-01       4    7    1        -0.3170825211E+01      0.7723426813E+01
          0                 4           2             4    7     1      -0.2783398672E-02       5    8    1        -0.1481534910E+00      0.3600239668E+00
          0                 5           2             4    7     1      -0.7529458696E-03       4    7    1        -0.3931376350E-01      0.9586705919E-01
          0                 6           1             4    7     1       0.5913185984E-04       4    7    1         0.3174255625E-02      0.7733988070E-02

    ------------------------------------------------
       NWT REQUIRED            6 OUTER ITERATIONS 
       AND A TOTAL OF         11 INNER ITERATIONS.
    ------------------------------------------------

 NO OUTPUT CONTROL FOR STRESS PERIOD   20   TIME STEP   23
 
 SOLVING FOR HEAD 
                                                   Max.-Head-Change                         Max.-Flux-Residual
  Residual-Control   Outer-Iter.   Inner-Iter.     Column Row Layer    Maximum-Head-Change  Column Row Layer    Maximum-Flux-Residual          L2-NORM 
          0                 1           2             4    7     1      -0.1181360259E+00       4    7    1        -0.6224243469E+01      0.1340958965E+02
          0                 2           2             5    8     1      -0.1019642434E-01       5    8    1        -0.5584349175E+00      0.1322932936E+01
          0                 3           2             4    7     1      -0.6070645684E-01       4    7    1        -0.3169741576E+01      0.7720624909E+01
          0                 4           2             4    7     1      -0.2785488420E-02       5    8    1        -0.1482690381E+00      0.3603035502E+00
          0                 5           2             4    7     1      -0.7527415333E-03       4    7    1        -0.3930294245E-01      0.9583908841E-01
          0                 6           1             4    7     1       0.5911191993E-04       4    7    1         0.3173173706E-02      0.7731191121E-02

    ------------------------------------------------
       NWT REQUIRED            6 OUTER ITERATIONS 
       AND A TOTAL OF         11 INNER ITERATIONS.
    ------------------------------------------------

 NO OUTPUT CONTROL FOR STRESS PERIOD   20   TIME STEP   24
 
 SOLVING FOR HEAD 
                                                   Max.-Head-Change                         Max.-Flux-Residual
  Residual-Control   Outer-Iter.   Inner-Iter.     Column Row Layer    Maximum-Head-Change  Column Row Layer    Maximum-Flux-Residual          L2-NORM 
          0                 1           2             4    7     1      -0.1160716422E+00       4    7    1        -0.6116357094E+01      0.1326127991E+02
          0                 2           2             5    8     1      -0.1040337347E-01       5    8    1        -0.5696132747E+00      0.1352096223E+01
          0                 3           2             4    7     1      -0.6068608179E-01       4    7    1        -0.3168663525E+01      0.7717895260E+01
          0                 4           2             4    7     1      -0.2787565797E-02       5    8    1        -0.1483801272E+00      0.3605759397E+00
          0                 5           2             4    7     1      -0.7525384392E-03       4    7    1        -0.3929217681E-01      0.9581183584E-01
          0                 6           1             4    7     1       0.5909210105E-04       4    7    1         0.3172097340E-02      0.7728465992E-02

    ------------------------------------------------
       NWT REQUIRED            6 OUTER ITERATIONS 
       AND A TOTAL OF         11 INNER ITERATIONS.
    ------------------------------------------------

 NO OUTPUT CONTROL FOR STRESS PERIOD   20   TIME STEP   25
 
 SOLVING FOR HEAD 
                                                   Max.-Head-Change                         Max.-Flux-Residual
  Residual-Control   Outer-Iter.   Inner-Iter.     Column Row Layer    Maximum-Head-Change  Column Row Layer    Maximum-Flux-Residual          L2-NORM 
          0                 1           2             4    7     1      -0.1140207962E+00       4    7    1        -0.6009098389E+01      0.1311961980E+02
          0                 2           2             5    8     1      -0.1060256767E-01       5    8    1        -0.5803658345E+00      0.1380367040E+01
          0                 3           2             4    7     1      -0.6066584226E-01       4    7    1        -0.3167591730E+01      0.7715235104E+01
          0                 4           2             4    7     1      -0.2789629637E-02       5    8    1        -0.1484870118E+00      0.3608414124E+00
          0                 5           2             4    7     1      -0.7523367013E-03       4    7    1        -0.3928147332E-01      0.9578527433E-01
          0                 6           1             4    7     1       0.5907241392E-04       4    7    1         0.3171027178E-02      0.7725809744E-02

    ------------------------------------------------
       NWT REQUIRED            6 OUTER ITERATIONS 
       AND A TOTAL OF         11 INNER ITERATIONS.
    ------------------------------------------------

 NO OUTPUT CONTROL FOR STRESS PERIOD   20   TIME STEP   26
 
 SOLVING FOR HEAD 
                                                   Max.-Head-Change                         Max.-Flux-Residual
  Residual-Control   Outer-Iter.   Inner-Iter.     Column Row Layer    Maximum-Head-Change  Column Row Layer    Maximum-Flux-Residual          L2-NORM 
          0                 1           2             4    7     1      -0.1119850520E+00       4    7    1        -0.5902556404E+01      0.1298424553E+02
          0                 2           2             5    8     1      -0.1079426940E-01       5    8    1        -0.5907160243E+00      0.1407850249E+01
          0                 3           2             4    7     1      -0.6064575368E-01       4    7    1        -0.3166527081E+01      0.7712642148E+01
          0                 4           2             4    7     1      -0.2791678363E-02       5    8    1        -0.1485898542E+00      0.3611001737E+00
          0                 5           2             4    7     1      -0.7521364720E-03       4    7    1        -0.3927084086E-01      0.9575938277E-01
          0                 6           1             4    7     1       0.5905287324E-04       4    7    1         0.3169964105E-02      0.7723220437E-02

    ------------------------------------------------
       NWT REQUIRED            6 OUTER ITERATIONS 
       AND A TOTAL OF         11 INNER ITERATIONS.
    ------------------------------------------------

 NO OUTPUT CONTROL FOR STRESS PERIOD   20   TIME STEP   27
 
 SOLVING FOR HEAD 
                                                   Max.-Head-Change                         Max.-Flux-Residual
  Residual-Control   Outer-Iter.   Inner-Iter.     Column Row Layer    Maximum-Head-Change  Column Row Layer    Maximum-Flux-Residual          L2-NORM 
          0                 1           2             4    7     1      -0.1099655628E+00       4    7    1        -0.5796797699E+01      0.1285464216E+02
          0                 2           2             5    8     1      -0.1097122065E-01       5    8    1        -0.6001253361E+00      0.1434191455E+01
          0                 3           2             4    7     1      -0.6062582362E-01       4    7    1        -0.3165470245E+01      0.7710112857E+01
          0                 4           2             4    7     1      -0.2793712527E-02       5    8    1        -0.1486835089E+00      0.3613526149E+00
          0                 5           2             4    7     1      -0.7519378494E-03       4    7    1        -0.3926028610E-01      0.9573411991E-01
          0                 6           1             4    7     1       0.5903348705E-04       4    7    1         0.3168908785E-02      0.7720694100E-02

    ------------------------------------------------
       NWT REQUIRED            6 OUTER ITERATIONS 
       AND A TOTAL OF         11 INNER ITERATIONS.
    ------------------------------------------------

 NO OUTPUT CONTROL FOR STRESS PERIOD   20   TIME STEP   28
 
 SOLVING FOR HEAD 
                                                   Max.-Head-Change                         Max.-Flux-Residual
  Residual-Control   Outer-Iter.   Inner-Iter.     Column Row Layer    Maximum-Head-Change  Column Row Layer    Maximum-Flux-Residual          L2-NORM 
          0                 1           2             4    7     1      -0.1079639066E+00       4    7    1        -0.5691889336E+01      0.1273077923E+02
          0                 2           2             5    8     1      -0.1116073616E-01       5    8    1        -0.6103541611E+00      0.1459994263E+01
          0                 3           2             4    7     1      -0.6060608786E-01       4    7    1        -0.3164421892E+01      0.7707646172E+01
          0                 4           2             4    7     1      -0.2795725846E-02       5    8    1        -0.1487852911E+00      0.3615988575E+00
          0                 5           2             4    7     1      -0.7517411474E-03       4    7    1        -0.3924981579E-01      0.9570948183E-01
          0                 6           1             4    7     1       0.5901429015E-04       4    7    1         0.3167861919E-02      0.7718230167E-02

    ------------------------------------------------
       NWT REQUIRED            6 OUTER ITERATIONS 
       AND A TOTAL OF         11 INNER ITERATIONS.
    ------------------------------------------------

 NO OUTPUT CONTROL FOR STRESS PERIOD   20   TIME STEP   29
 
 SOLVING FOR HEAD 
                                                   Max.-Head-Change                         Max.-Flux-Residual
  Residual-Control   Outer-Iter.   Inner-Iter.     Column Row Layer    Maximum-Head-Change  Column Row Layer    Maximum-Flux-Residual          L2-NORM 
          0                 1           2             4    7     1      -0.1059806367E+00       4    7    1        -0.5587891970E+01      0.1263378841E+02
          0                 2           2             5    8     1      -0.1133445256E-01       5    8    1        -0.6197277137E+00      0.1486663251E+01
          0                 3           2             4    7     1      -0.6058652264E-01       4    7    1        -0.3163382628E+01      0.7705241669E+01
          0                 4           2             4    7     1      -0.2797722021E-02       5    8    1        -0.1488783972E+00      0.3618388767E+00
          0                 5           2             4    7     1      -0.7515461493E-03       4    7    1        -0.3923943597E-01      0.9568546325E-01
          0                 6           1             4    7     1       0.5899525904E-04       4    7    1         0.3166824114E-02      0.7715893858E-02

    ------------------------------------------------
       NWT REQUIRED            6 OUTER ITERATIONS 
       AND A TOTAL OF         11 INNER ITERATIONS.
    ------------------------------------------------

 NO OUTPUT CONTROL FOR STRESS PERIOD   20   TIME STEP   30



 STREAM LISTING     PERIOD     20   STEP       30

 LAYER ROW COL. STREAM  RCH.  FLOW INTO     FLOW TO   FLOW OUT OF   OVRLND.     DIRECT     STREAM       STREAM     STREAM     STREAM   STREAMBED  STREAMBED
                SEG.NO.  NO.  STRM. RCH.    AQUIFER    STRM. RCH.    RUNOFF     PRECIP       ET          HEAD       DEPTH      WIDTH   CONDCTNC.   GRADIENT

   1    1    1     1     1    4.3035E+01  3.1412E-01   4.2721E+01  0.000E+00  0.000E+00  0.000E+00  1.09440E+03  1.353E+00  1.604E+01  7.216E-02  1.451E+00
   1    2    2     1     2    4.2721E+01  4.8658E-01   4.2235E+01  0.000E+00  0.000E+00  0.000E+00  1.08941E+03  1.350E+00  1.598E+01  1.118E-01  1.450E+00
   1    3    3     1     3    4.2235E+01  4.1507E-01   4.1819E+01  0.000E+00  0.000E+00  0.000E+00  1.08377E+03  1.347E+00  1.591E+01  9.548E-02  1.449E+00
   1    3    4     1     4    4.1819E+01  3.8230E-01   4.1437E+01  0.000E+00  0.000E+00  0.000E+00  1.07875E+03  1.344E+00  1.586E+01  8.800E-02  1.448E+00
   1    4    5     2     1    3.9437E+01  3.5748E-01   3.9080E+01  0.000E+00  0.000E+00  0.000E+00  1.07352E+03  1.583E+00  1.200E+01  7.800E-02  1.528E+00
   1    5    6     2     2    3.9080E+01  2.7453E-01   3.8805E+01  0.000E+00  0.000E+00  0.000E+00  1.06808E+03  1.575E+00  1.200E+01  6.000E-02  1.525E+00
   1    6    6     2     3    3.8805E+01  2.7413E-01   3.8531E+01  0.000E+00  0.000E+00  0.000E+00  1.06336E+03  1.569E+00  1.200E+01  6.000E-02  1.523E+00
   1    7    6     2     4    3.8531E+01  2.7372E-01   3.8257E+01  0.000E+00  0.000E+00  0.000E+00  1.05864E+03  1.562E+00  1.200E+01  6.000E-02  1.521E+00
   1    8    6     2     5    3.8257E+01  2.7332E-01   3.7984E+01  0.000E+00  0.000E+00  0.000E+00  1.05391E+03  1.555E+00  1.200E+01  6.000E-02  1.518E+00
   1    3    5     3     1    2.0000E+00  2.8252E-01   1.7175E+00  0.000E+00  0.000E+00  0.000E+00  1.07555E+03  1.909E+00  9.636E+00  7.227E-02  1.955E+00
   1    3    6     3     2    1.7175E+00  2.4905E-01   1.4684E+00  0.000E+00  0.000E+00  0.000E+00  1.07264E+03  1.727E+00  8.909E+00  6.682E-02  1.864E+00
   1    3    7     3     3    1.4684E+00  1.9718E-01   1.2712E+00  0.000E+00  0.000E+00  0.000E+00  1.06987E+03  1.555E+00  8.218E+00  5.547E-02  1.777E+00
   1    4    8     3     4    1.2712E+00  2.2567E-01   1.0456E+00  0.000E+00  0.000E+00  0.000E+00  1.06682E+03  1.364E+00  7.455E+00  6.709E-02  1.682E+00
   1    5    8     3     5    1.0456E+00  1.5790E-01   8.8768E-01  0.000E+00  0.000E+00  0.000E+00  1.06362E+03  1.164E+00  6.655E+00  4.991E-02  1.582E+00
   1    6    8     3     6    8.8768E-01  5.5980E-02   8.3170E-01  0.000E+00  0.000E+00  0.000E+00  1.06158E+03  1.036E+00  6.145E+00  1.844E-02  1.518E+00
   1    5   10     4     1    1.0000E+01  9.0919E-02   9.9091E+00  0.000E+00  0.000E+00  0.000E+00  1.07836E+03  6.368E-01  1.000E+01  2.500E-02  1.212E+00
   1    5    9     4     2    9.9091E+00  1.8158E-01   9.7275E+00  0.000E+00  0.000E+00  0.000E+00  1.07154E+03  6.315E-01  1.000E+01  5.000E-02  1.211E+00
   1    6    8     4     3    9.7275E+00  1.2689E-01   9.6006E+00  0.000E+00  0.000E+00  0.000E+00  1.06381E+03  6.256E-01  1.000E+01  3.500E-02  1.209E+00
   1    6    8     5     1    1.0432E+01  2.2686E-01   1.0205E+01  0.000E+00  0.000E+00  0.000E+00  1.05868E+03  6.790E-01  1.542E+01  6.166E-02  1.226E+00
   1    7    7     5     2    1.0205E+01  2.7894E-01   9.9265E+00  0.000E+00  0.000E+00  0.000E+00  1.05417E+03  6.732E-01  1.519E+01  7.594E-02  1.224E+00
   1    8    7     5     3    9.9265E+00  1.9221E-01   9.7343E+00  0.000E+00  0.000E+00  0.000E+00  1.04992E+03  6.676E-01  1.497E+01  5.241E-02  1.223E+00
   1    8    6     5     4    9.7343E+00  1.3577E-01   9.5985E+00  0.000E+00  0.000E+00  0.000E+00  1.04691E+03  6.637E-01  1.482E+01  3.706E-02  1.221E+00
   1    9    6     6     1    4.7583E+01  2.8760E-01   4.7295E+01  0.000E+00  0.000E+00  0.000E+00  1.04452E+03  1.793E+00  1.200E+01  6.000E-02  1.598E+00
   1   10    7     6     2    4.7295E+01  2.8721E-01   4.7008E+01  0.000E+00  0.000E+00  0.000E+00  1.03997E+03  1.787E+00  1.200E+01  6.000E-02  1.596E+00
   1   11    7     6     3    4.7008E+01  2.8681E-01   4.6721E+01  0.000E+00  0.000E+00  0.000E+00  1.03542E+03  1.780E+00  1.200E+01  6.000E-02  1.593E+00
   1   12    7     6     4    4.6721E+01  2.8642E-01   4.6434E+01  0.000E+00  0.000E+00  0.000E+00  1.03086E+03  1.774E+00  1.200E+01  6.000E-02  1.591E+00
   1   13    7     6     5    4.6434E+01  1.4433E-02   4.6420E+01  0.000E+00  0.000E+00  0.000E+00  1.02768E+03  1.770E+00  1.200E+01  2.400E-02  2.005E-01
   1   14    9     7     1    1.5000E+02  1.3329E+00   1.4867E+02  0.000E+00  0.000E+00  0.000E+00  1.03987E+03  2.288E+00  5.529E+01  5.593E-01  7.944E-01
   1   13    8     7     2    1.4867E+02  1.8318E+00   1.4684E+02  0.000E+00  0.000E+00  0.000E+00  1.03478E+03  2.279E+00  5.526E+01  6.148E-01  9.932E-01
   1   13    7     7     3    1.4684E+02  1.4586E+00   1.4538E+02  0.000E+00  0.000E+00  0.000E+00  1.02969E+03  2.271E+00  5.522E+01  5.585E-01  8.706E-01
   1   13    6     8     1    1.9180E+02  9.9219E-01   1.9080E+02  0.000E+00  0.000E+00  0.000E+00  1.02496E+03  3.086E+00  4.474E+01  4.560E-01  7.253E-01
   1   13    5     8     2    1.9080E+02  2.1207E-01   1.9059E+02  0.000E+00  0.000E+00  0.000E+00  1.01871E+03  3.082E+00  4.469E+01  4.554E-01  1.552E-01
   1   13    4     8     3    1.9059E+02 -2.4459E+00   1.9304E+02  0.000E+00  0.000E+00  0.000E+00  1.01246E+03  3.089E+00  4.479E+01  4.564E+00 -1.786E-01
   1   13    3     8     4    1.9304E+02 -3.5764E+00   1.9661E+02  0.000E+00  0.000E+00  0.000E+00  1.00623E+03  3.107E+00  4.505E+01  4.591E+00 -2.597E-01
   1   13    2     8     5    1.9661E+02 -2.7394E+00   1.9935E+02  0.000E+00  0.000E+00  0.000E+00  1.00000E+03  3.126E+00  4.532E+01  4.619E+00 -1.977E-01
   1   13    1     8     6    1.9935E+02 -2.1017E+00   2.0146E+02  0.000E+00  0.000E+00  0.000E+00  9.95015E+02  3.140E+00  4.553E+01  2.784E+00 -2.516E-01





UNSATURATED ZONE PACKAGE VOLUMETRIC BUDGET FOR  TIME STEP    30 STRESS PERIOD   20
  ------------------------------------------------------------------------------



     CUMULATIVE VOLUMES      L**3       RATES FOR THIS TIME STEP      L**3/T
     ------------------                 ------------------------

           IN:                                      IN:
           ---                                      ---
        INFILTRATION =   837336139.0875          INFILTRATION =          88.3416

          OUT:                                     OUT:
          ----                                     ----
              UZF ET =   692484613.9408                UZF ET =          60.8175
        UZF RECHARGE =    72392846.7693          UZF RECHARGE =       0.0000E+00

            IN - OUT =    72458678.3774              IN - OUT =          27.5241

          STORAGE:                                 STORAGE:
          --------                                 --------
      STORAGE CHANGE =    72458690.6061        STORAGE CHANGE =          27.5241

 PERCENT DISCREPANCY IS DIFFERENCE BETWEEN IN-OUT MINUS CHANGE IN STORAGE
 DIVIDED BY THE AVERAGE OF IN AND OUT TIMES 100

 PERCENT DISCREPANCY =           0.00     PERCENT DISCREPANCY =          -0.00






1
  VOLUMETRIC BUDGET FOR AGRICULTURAL FIELDS AT  END OF TIME STEP   30, STRESS PERIOD  20
  ------------------------------------------------------------------------------

     CUMULATIVE VOLUMES      L**3       RATES FOR THIS TIME STEP      L**3/T
     ------------------                 ------------------------

           IN:                                      IN:
           ---                                      ---
               AG WELLS  =   794912832.0000                 AG WELLS  =          87.4941
      DIVERSION SEGMENTS =           0.0000        DIVERSION SEGMENTS =           0.0000
           GW IRRIGATION =           0.0000             GW IRRIGATION =           0.0000
           SW IRRIGATION =           0.0000             SW IRRIGATION =           0.0000
        SYSTEM LOSSES GW =           0.0000          SYSTEM LOSSES GW =           0.0000
        SYSTEM LOSSES SW =           0.0000          SYSTEM LOSSES SW =           0.0000

                TOTAL IN =   794912832.0000                  TOTAL IN =          87.4941

          OUT:                                     OUT:
          ----                                     ----
               AG WELLS  =           0.0000                 AG WELLS  =           0.0000
      DIVERSION SEGMENTS =           0.0000        DIVERSION SEGMENTS =           0.0000
           GW IRRIGATION =   794912832.0000             GW IRRIGATION =          87.4941
           SW IRRIGATION =           0.0000             SW IRRIGATION =           0.0000
        SYSTEM LOSSES GW =           0.0000          SYSTEM LOSSES GW =           0.0000
        SYSTEM LOSSES SW =           0.0000          SYSTEM LOSSES SW =           0.0000

               TOTAL OUT =   794912832.0000                 TOTAL OUT =          87.4941

                IN - OUT =           0.0000                  IN - OUT =           0.0000

     PERCENT DISCREPANCY =           0.00         PERCENT DISCREPANCY =           0.00



1
  VOLUMETRIC BUDGET FOR ENTIRE MODEL AT END OF TIME STEP   30, STRESS PERIOD  20
  ------------------------------------------------------------------------------

     CUMULATIVE VOLUMES      L**3       RATES FOR THIS TIME STEP      L**3/T
     ------------------                 ------------------------

           IN:                                      IN:
           ---                                      ---
             STORAGE     =   938567168.0000               STORAGE     =          86.4268
       CONSTANT HEAD     =           0.0000         CONSTANT HEAD     =           0.0000
     HEAD DEP BOUNDS     =    14287215.0000       HEAD DEP BOUNDS     =           0.2856
      STREAM LEAKAGE     =   629927808.0000        STREAM LEAKAGE     =          12.4428
        UZF RECHARGE     =    72392816.0000          UZF RECHARGE     =           0.0000
               GW ET     =           0.0000                 GW ET     =           0.0000
     SURFACE LEAKAGE     =           0.0000       SURFACE LEAKAGE     =           0.0000
           AG WELLS      =           0.0000             AG WELLS      =           0.0000

                TOTAL IN =  1655175040.0000                  TOTAL IN =          99.1552

          OUT:                                     OUT:
          ----                                     ----
             STORAGE     =   312947136.0000               STORAGE     =           0.2833
       CONSTANT HEAD     =           0.0000         CONSTANT HEAD     =           0.0000
     HEAD DEP BOUNDS     =    14756207.0000       HEAD DEP BOUNDS     =           0.2953
      STREAM LEAKAGE     =   515089792.0000        STREAM LEAKAGE     =          10.8633
        UZF RECHARGE     =           0.0000          UZF RECHARGE     =           0.0000
               GW ET     =    17477058.0000                 GW ET     =           0.2204
     SURFACE LEAKAGE     =           0.0000       SURFACE LEAKAGE     =           0.0000
           AG WELLS      =   794912832.0000             AG WELLS      =          87.4941

               TOTAL OUT =  1655182976.0000                 TOTAL OUT =          99.1564

                IN - OUT =       -7936.0000                  IN - OUT =      -1.2817E-03

     PERCENT DISCREPANCY =          -0.00         PERCENT DISCREPANCY =          -0.00






         TIME SUMMARY AT END OF TIME STEP   30 IN STRESS PERIOD   20
                    SECONDS     MINUTES      HOURS       DAYS        YEARS
                    -----------------------------------------------------------
   TIME STEP LENGTH  87667.      1461.1      24.352      1.0147     2.77799E-03
 STRESS PERIOD TIME 2.63000E+06  43833.      730.56      30.440     8.33397E-02
         TOTAL TIME 5.00565E+07 8.34276E+05  13905.      579.36      1.5862    
1
1
                            STRESS PERIOD NO.   21, LENGTH =   2630000.    
                            -----------------------------------------------

                              NUMBER OF TIME STEPS =    30

                               MULTIPLIER FOR DELT =     1.000

                            INITIAL TIME STEP SIZE =   87666.66    

 REUSING NON-PARAMETER GHB CELLS FROM LAST STRESS PERIOD

      2 GHB CELLS

 REUSING STREAM SEGMENT DATA FROM LAST STRESS PERIOD



            AREAL INFILTRATION RATE
 READING ON UNIT   19 WITH FORMAT: (FREE)              

            1           2           3           4           5           6           7           8           9          10
 ........................................................................................................................
   1   1.0000E-10  2.0000E-10   0.000       0.000       0.000       0.000       0.000       0.000       0.000       0.000    
   2   2.0000E-10  1.0000E-10  2.0000E-10   0.000       0.000      8.0000E-10  8.0000E-10  5.0000E-10   0.000       0.000    
   3    0.000      5.0000E-10  1.0000E-10  1.0000E-10  8.0000E-10  8.0000E-10  5.0000E-10  5.0000E-10   0.000       0.000    
   4   8.0000E-10  5.0000E-10  1.0000E-10  1.0000E-10  1.0000E-10  1.0000E-10  1.0000E-10  1.0000E-10  2.0000E-10   0.000    
   5   8.0000E-10  5.0000E-10  1.0000E-10  1.0000E-10  1.0000E-10  1.0000E-10  1.0000E-10  1.0000E-10  1.0000E-10  1.0000E-10
   6   8.0000E-10  5.0000E-10  5.0000E-10  2.0000E-10  2.0000E-10  1.0000E-10  1.0000E-10  1.0000E-10  1.0000E-10  5.0000E-10
   7   8.0000E-10  5.0000E-10  5.0000E-10  2.0000E-10  2.0000E-10  1.0000E-10  1.0000E-10  2.0000E-10  2.0000E-10   0.000    
   8    0.000      5.0000E-10  5.0000E-10  2.0000E-10  2.0000E-10  1.0000E-10  1.0000E-10  2.0000E-10  5.0000E-10   0.000    
   9    0.000      5.0000E-10  5.0000E-10  2.0000E-10  2.0000E-10  1.0000E-10  1.0000E-10  2.0000E-10  5.0000E-10   0.000    
  10    0.000      5.0000E-10  5.0000E-10  2.0000E-10  2.0000E-10  1.0000E-10  1.0000E-10  2.0000E-10  5.0000E-10  8.0000E-10
  11    0.000      1.0000E-10  1.0000E-10  1.0000E-10  1.0000E-10  1.0000E-10  1.0000E-10  2.0000E-10  5.0000E-10   0.000    
  12   1.0000E-10  1.0000E-10  1.0000E-10  1.0000E-10  1.0000E-10  1.0000E-10  1.0000E-10  1.0000E-10  2.0000E-10   0.000    
  13   1.0000E-10  1.0000E-10  2.0000E-10  2.0000E-10  2.0000E-10  2.0000E-10  2.0000E-10  1.0000E-10  1.0000E-10   0.000    
  14    0.000      2.0000E-10  5.0000E-10  5.0000E-10  5.0000E-10  5.0000E-10  5.0000E-10  2.0000E-10  1.0000E-10   0.000    
  15    0.000       0.000      8.0000E-10  8.0000E-10  8.0000E-10  8.0000E-10   0.000       0.000       0.000       0.000    

                  ET RATE =  3.250000E-07

 USING ET EXTINCTION DEPTH FROM PREVIOUS STRESS PERIOD. CURRENT PERIOD IS:      21

 USING EXTINCTION WATER CONTENT FROM PREVIOUS STRESS PERIOD. CURRENT PERIOD IS:      21

 USING AIR ENTRY PRESSURE FROM PREVIOUS STRESS PERIOD. CURRENT PERIOD IS:      21

 USING ROOT PRESSURE HEAD FROM PREVIOUS STRESS PERIOD. CURRENT PERIOD IS:      21

 USING ROOT ACTIVITY FROM PREVIOUS STRESS PERIOD. CURRENT PERIOD IS:      21

 PROCESSING AG STRESS PERIOD DATA

 READING AG STRESS PERIOD DATA

 READING IRRIGATION WELL

 END PROCESSING AG STRESS PERIOD DATA OPTIONS
 
 SOLVING FOR HEAD 
                                                   Max.-Head-Change                         Max.-Flux-Residual
  Residual-Control   Outer-Iter.   Inner-Iter.     Column Row Layer    Maximum-Head-Change  Column Row Layer    Maximum-Flux-Residual          L2-NORM 
          0                 1           2             4    7     1      -0.6809916364E-01       4    7    1        -0.3609854746E+01      0.9749519032E+01
          0                 2           2             4    7     1       0.6624045884E-02       4    7    1         0.3609753386E+00      0.9748597256E+00
          0                 3           2             4    7     1      -0.4510743931E-03       4    7    1        -0.2526838052E-01      0.6823307697E-01
          0                 4           1             4    7     1       0.1794866506E-04       4    7    1         0.1033477758E-02      0.2790303512E-02

    ------------------------------------------------
       NWT REQUIRED            4 OUTER ITERATIONS 
       AND A TOTAL OF          7 INNER ITERATIONS.
    ------------------------------------------------

 NO OUTPUT CONTROL FOR STRESS PERIOD   21   TIME STEP    1
 
 SOLVING FOR HEAD 
                                                   Max.-Head-Change                         Max.-Flux-Residual
  Residual-Control   Outer-Iter.   Inner-Iter.     Column Row Layer    Maximum-Head-Change  Column Row Layer    Maximum-Flux-Residual          L2-NORM 
          0                 1           2             4    7     1      -0.6679458044E-01       4    7    1        -0.3538237408E+01      0.9621118962E+01
          0                 2           2             4    7     1       0.6472461601E-02       4    7    1         0.3521774292E+00      0.9617946181E+00
          0                 3           2             4    7     1      -0.4407517840E-03       4    7    1        -0.2465250742E-01      0.6731990865E-01
          0                 4           1             4    7     1       0.1753792006E-04       4    7    1         0.1008288594E-02      0.2752988396E-02

    ------------------------------------------------
       NWT REQUIRED            4 OUTER ITERATIONS 
       AND A TOTAL OF          7 INNER ITERATIONS.
    ------------------------------------------------

 NO OUTPUT CONTROL FOR STRESS PERIOD   21   TIME STEP    2
 
 SOLVING FOR HEAD 
                                                   Max.-Head-Change                         Max.-Flux-Residual
  Residual-Control   Outer-Iter.   Inner-Iter.     Column Row Layer    Maximum-Head-Change  Column Row Layer    Maximum-Flux-Residual          L2-NORM 
          0                 1           2             4    7     1      -0.6562469399E-01       4    7    1        -0.3471772869E+01      0.9504420730E+01
          0                 2           2             4    7     1       0.6383380573E-02       4    7    1         0.3471694576E+00      0.9504485263E+00
          0                 3           2             4    7     1      -0.4346856580E-03       4    7    1        -0.2430194661E-01      0.6652680877E-01
          0                 4           1             4    7     1       0.1729654342E-04       4    7    1         0.9939506469E-03      0.2720680420E-02

    ------------------------------------------------
       NWT REQUIRED            4 OUTER ITERATIONS 
       AND A TOTAL OF          7 INNER ITERATIONS.
    ------------------------------------------------

 NO OUTPUT CONTROL FOR STRESS PERIOD   21   TIME STEP    3
 
 SOLVING FOR HEAD 
                                                   Max.-Head-Change                         Max.-Flux-Residual
  Residual-Control   Outer-Iter.   Inner-Iter.     Column Row Layer    Maximum-Head-Change  Column Row Layer    Maximum-Flux-Residual          L2-NORM 
          0                 1           2             4    7     1      -0.6449109639E-01       4    7    1        -0.3409673596E+01      0.9397862961E+01
          0                 2           2             4    7     1       0.6273117038E-02       4    7    1         0.3409598869E+00      0.9397351567E+00
          0                 3           2             4    7     1      -0.4271770708E-03       4    7    1        -0.2386727310E-01      0.6577770174E-01
          0                 4           1             4    7     1       0.1699777003E-04       4    7    1         0.9761724957E-03      0.2690036767E-02

    ------------------------------------------------
       NWT REQUIRED            4 OUTER ITERATIONS 
       AND A TOTAL OF          7 INNER ITERATIONS.
    ------------------------------------------------

 NO OUTPUT CONTROL FOR STRESS PERIOD   21   TIME STEP    4
 
 SOLVING FOR HEAD 
                                                   Max.-Head-Change                         Max.-Flux-Residual
  Residual-Control   Outer-Iter.   Inner-Iter.     Column Row Layer    Maximum-Head-Change  Column Row Layer    Maximum-Flux-Residual          L2-NORM 
          0                 1           2             4    7     1      -0.6341569307E-01       4    7    1        -0.3350765940E+01      0.9299894022E+01
          0                 2           2             4    7     1       0.6168514419E-02       4    7    1         0.3350694612E+00      0.9299461448E+00
          0                 3           2             4    7     1      -0.4200539734E-03       4    7    1        -0.2345493990E-01      0.6509314668E-01
          0                 4           1             4    7     1       0.1671433577E-04       4    7    1         0.9593080636E-03      0.2662130551E-02

    ------------------------------------------------
       NWT REQUIRED            4 OUTER ITERATIONS 
       AND A TOTAL OF          7 INNER ITERATIONS.
    ------------------------------------------------

 NO OUTPUT CONTROL FOR STRESS PERIOD   21   TIME STEP    5
 
 SOLVING FOR HEAD 
                                                   Max.-Head-Change                         Max.-Flux-Residual
  Residual-Control   Outer-Iter.   Inner-Iter.     Column Row Layer    Maximum-Head-Change  Column Row Layer    Maximum-Flux-Residual          L2-NORM 
          0                 1           2             4    7     1      -0.6239566593E-01       4    7    1        -0.3294897349E+01      0.9209817796E+01
          0                 2           2             4    7     1       0.6069298172E-02       4    7    1         0.3294829258E+00      0.9209448703E+00
          0                 3           2             4    7     1      -0.4132976703E-03       4    7    1        -0.2306387920E-01      0.6446355792E-01
          0                 4           1             4    7     1       0.1644549648E-04       4    7    1         0.9433136847E-03      0.2636376176E-02

    ------------------------------------------------
       NWT REQUIRED            4 OUTER ITERATIONS 
       AND A TOTAL OF          7 INNER ITERATIONS.
    ------------------------------------------------

 NO OUTPUT CONTROL FOR STRESS PERIOD   21   TIME STEP    6
 
 SOLVING FOR HEAD 
                                                   Max.-Head-Change                         Max.-Flux-Residual
  Residual-Control   Outer-Iter.   Inner-Iter.     Column Row Layer    Maximum-Head-Change  Column Row Layer    Maximum-Flux-Residual          L2-NORM 
          0                 1           2             4    7     1      -0.6142778532E-01       4    7    1        -0.3241892802E+01      0.9126750360E+01
          0                 2           2             4    7     1       0.5975154145E-02       4    7    1         0.3241827793E+00      0.9126432306E+00
          0                 3           2             4    7     1      -0.4068867682E-03       4    7    1        -0.2269286585E-01      0.6388285333E-01
          0                 4           1             4    7     1       0.1619040100E-04       4    7    1         0.9281392352E-03      0.2612685095E-02

    ------------------------------------------------
       NWT REQUIRED            4 OUTER ITERATIONS 
       AND A TOTAL OF          7 INNER ITERATIONS.
    ------------------------------------------------

 NO OUTPUT CONTROL FOR STRESS PERIOD   21   TIME STEP    7
 
 SOLVING FOR HEAD 
                                                   Max.-Head-Change                         Max.-Flux-Residual
  Residual-Control   Outer-Iter.   Inner-Iter.     Column Row Layer    Maximum-Head-Change  Column Row Layer    Maximum-Flux-Residual          L2-NORM 
          0                 1           2             4    7     1      -0.6050936997E-01       4    7    1        -0.3191606531E+01      0.9049948629E+01
          0                 2           2             4    7     1       0.5885821531E-02       4    7    1         0.3191544452E+00      0.9049672720E+00
          0                 3           2             4    7     1      -0.4008035077E-03       4    7    1        -0.2234087956E-01      0.6334588011E-01
          0                 4           1             4    7     1       0.1594834188E-04       4    7    1         0.9137429599E-03      0.2590747793E-02

    ------------------------------------------------
       NWT REQUIRED            4 OUTER ITERATIONS 
       AND A TOTAL OF          7 INNER ITERATIONS.
    ------------------------------------------------

 NO OUTPUT CONTROL FOR STRESS PERIOD   21   TIME STEP    8
 
 SOLVING FOR HEAD 
                                                   Max.-Head-Change                         Max.-Flux-Residual
  Residual-Control   Outer-Iter.   Inner-Iter.     Column Row Layer    Maximum-Head-Change  Column Row Layer    Maximum-Flux-Residual          L2-NORM 
          0                 1           2             4    7     1      -0.5963772929E-01       4    7    1        -0.3143892277E+01      0.8978750151E+01
          0                 2           2             4    7     1       0.5801038613E-02       4    7    1         0.3143832982E+00      0.8978509191E+00
          0                 3           2             4    7     1      -0.3950300668E-03       4    7    1        -0.2200689648E-01      0.6284800807E-01
          0                 4           1             4    7     1       0.1571861212E-04       4    7    1         0.9000830694E-03      0.2570397027E-02

    ------------------------------------------------
       NWT REQUIRED            4 OUTER ITERATIONS 
       AND A TOTAL OF          7 INNER ITERATIONS.
    ------------------------------------------------

 NO OUTPUT CONTROL FOR STRESS PERIOD   21   TIME STEP    9
 
 SOLVING FOR HEAD 
                                                   Max.-Head-Change                         Max.-Flux-Residual
  Residual-Control   Outer-Iter.   Inner-Iter.     Column Row Layer    Maximum-Head-Change  Column Row Layer    Maximum-Flux-Residual          L2-NORM 
          0                 1           2             4    7     1      -0.5881003591E-01       4    7    1        -0.3098596080E+01      0.8912551329E+01
          0                 2           2             4    7     1       0.5720530376E-02       4    7    1         0.3098539428E+00      0.8912320865E+00
          0                 3           2             4    7     1      -0.3895477178E-03       4    7    1        -0.2168983898E-01      0.6238502974E-01
          0                 4           1             4    7     1       0.1550046443E-04       4    7    1         0.8871154100E-03      0.2551495400E-02

    ------------------------------------------------
       NWT REQUIRED            4 OUTER ITERATIONS 
       AND A TOTAL OF          7 INNER ITERATIONS.
    ------------------------------------------------

 NO OUTPUT CONTROL FOR STRESS PERIOD   21   TIME STEP   10
 
 SOLVING FOR HEAD 
                                                   Max.-Head-Change                         Max.-Flux-Residual
  Residual-Control   Outer-Iter.   Inner-Iter.     Column Row Layer    Maximum-Head-Change  Column Row Layer    Maximum-Flux-Residual          L2-NORM 
          0                 1           2             4    7     1      -0.5802399620E-01       4    7    1        -0.3055593019E+01      0.8850844907E+01
          0                 2           2             4    7     1       0.5644073714E-02       4    7    1         0.3055538875E+00      0.8850654988E+00
          0                 3           2             4    7     1      -0.3843412671E-03       4    7    1        -0.2138883259E-01      0.6195345792E-01
          0                 4           1             4    7     1       0.1529329508E-04       4    7    1         0.8748042310E-03      0.2533787966E-02

    ------------------------------------------------
       NWT REQUIRED            4 OUTER ITERATIONS 
       AND A TOTAL OF          7 INNER ITERATIONS.
    ------------------------------------------------

 NO OUTPUT CONTROL FOR STRESS PERIOD   21   TIME STEP   11
 
 SOLVING FOR HEAD 
                                                   Max.-Head-Change                         Max.-Flux-Residual
  Residual-Control   Outer-Iter.   Inner-Iter.     Column Row Layer    Maximum-Head-Change  Column Row Layer    Maximum-Flux-Residual          L2-NORM 
          0                 1           2             4    7     1      -0.5727717055E-01       4    7    1        -0.3014749715E+01      0.8793165283E+01
          0                 2           2             4    7     1       0.5571431331E-02       4    7    1         0.3014697949E+00      0.8792994090E+00
          0                 3           2             4    7     1      -0.3793945573E-03       4    7    1        -0.2110294375E-01      0.6154994584E-01
          0                 4           1             4    7     1       0.1509646096E-04       4    7    1         0.8631113712E-03      0.2517330027E-02

    ------------------------------------------------
       NWT REQUIRED            4 OUTER ITERATIONS 
       AND A TOTAL OF          7 INNER ITERATIONS.
    ------------------------------------------------

 NO OUTPUT CONTROL FOR STRESS PERIOD   21   TIME STEP   12
 
 SOLVING FOR HEAD 
                                                   Max.-Head-Change                         Max.-Flux-Residual
  Residual-Control   Outer-Iter.   Inner-Iter.     Column Row Layer    Maximum-Head-Change  Column Row Layer    Maximum-Flux-Residual          L2-NORM 
          0                 1           2             4    7     1      -0.5656737295E-01       4    7    1        -0.2975946899E+01      0.8739096594E+01
          0                 2           2             4    7     1       0.5502390591E-02       4    7    1         0.2975897386E+00      0.8738942089E+00
          0                 3           2             4    7     1      -0.3746931074E-03       4    7    1        -0.2083133755E-01      0.6117168762E-01
          0                 4           1             4    7     1       0.1490938598E-04       4    7    1         0.8520026747E-03      0.2501855704E-02

    ------------------------------------------------
       NWT REQUIRED            4 OUTER ITERATIONS 
       AND A TOTAL OF          7 INNER ITERATIONS.
    ------------------------------------------------

 NO OUTPUT CONTROL FOR STRESS PERIOD   21   TIME STEP   13
 
 SOLVING FOR HEAD 
                                                   Max.-Head-Change                         Max.-Flux-Residual
  Residual-Control   Outer-Iter.   Inner-Iter.     Column Row Layer    Maximum-Head-Change  Column Row Layer    Maximum-Flux-Residual          L2-NORM 
          0                 1           2             4    7     1      -0.5589253776E-01       4    7    1        -0.2939071223E+01      0.8688285534E+01
          0                 2           2             4    7     1       0.5436750573E-02       4    7    1         0.2939023844E+00      0.8688145461E+00
          0                 3           2             4    7     1      -0.3702232357E-03       4    7    1        -0.2057322061E-01      0.6081621758E-01
          0                 4           1             4    7     1       0.1473152581E-04       4    7    1         0.8414456904E-03      0.2487336531E-02

    ------------------------------------------------
       NWT REQUIRED            4 OUTER ITERATIONS 
       AND A TOTAL OF          7 INNER ITERATIONS.
    ------------------------------------------------

 NO OUTPUT CONTROL FOR STRESS PERIOD   21   TIME STEP   14
 
 SOLVING FOR HEAD 
                                                   Max.-Head-Change                         Max.-Flux-Residual
  Residual-Control   Outer-Iter.   Inner-Iter.     Column Row Layer    Maximum-Head-Change  Column Row Layer    Maximum-Flux-Residual          L2-NORM 
          0                 1           2             4    7     1      -0.5525043433E-01       4    7    1        -0.2904001137E+01      0.8640393516E+01
          0                 2           2             4    7     1       0.5374294302E-02       4    7    1         0.2903955778E+00      0.8640265436E+00
          0                 3           2             4    7     1      -0.3659701668E-03       4    7    1        -0.2032774214E-01      0.6048118054E-01
          0                 4           1             4    7     1       0.1456229238E-04       4    7    1         0.8314056090E-03      0.2473636327E-02

    ------------------------------------------------
       NWT REQUIRED            4 OUTER ITERATIONS 
       AND A TOTAL OF          7 INNER ITERATIONS.
    ------------------------------------------------

 NO OUTPUT CONTROL FOR STRESS PERIOD   21   TIME STEP   15
 
 SOLVING FOR HEAD 
                                                   Max.-Head-Change                         Max.-Flux-Residual
  Residual-Control   Outer-Iter.   Inner-Iter.     Column Row Layer    Maximum-Head-Change  Column Row Layer    Maximum-Flux-Residual          L2-NORM 
          0                 1           2             4    7     1      -0.5463935670E-01       4    7    1        -0.2870642649E+01      0.8595140196E+01
          0                 2           2             4    7     1       0.5314855840E-02       4    7    1         0.2870599200E+00      0.8595023844E+00
          0                 3           2             4    7     1      -0.3619226015E-03       4    7    1        -0.2009424420E-01      0.6016456562E-01
          0                 4           1             4    7     1       0.1440123601E-04       4    7    1         0.8218555365E-03      0.2460703126E-02

    ------------------------------------------------
       NWT REQUIRED            4 OUTER ITERATIONS 
       AND A TOTAL OF          7 INNER ITERATIONS.
    ------------------------------------------------

 NO OUTPUT CONTROL FOR STRESS PERIOD   21   TIME STEP   16
 
 SOLVING FOR HEAD 
                                                   Max.-Head-Change                         Max.-Flux-Residual
  Residual-Control   Outer-Iter.   Inner-Iter.     Column Row Layer    Maximum-Head-Change  Column Row Layer    Maximum-Flux-Residual          L2-NORM 
          0                 1           2             4    7     1      -0.5405742371E-01       4    7    1        -0.2838892859E+01      0.8552273077E+01
          0                 2           2             4    7     1       0.5258252210E-02       4    7    1         0.2838851215E+00      0.8552166510E+00
          0                 3           2             4    7     1      -0.3580680789E-03       4    7    1        -0.1987200649E-01      0.5986464368E-01
          0                 4           1             4    7     1       0.1424786117E-04       4    7    1         0.8127660176E-03      0.2448407565E-02

    ------------------------------------------------
       NWT REQUIRED            4 OUTER ITERATIONS 
       AND A TOTAL OF          7 INNER ITERATIONS.
    ------------------------------------------------

 NO OUTPUT CONTROL FOR STRESS PERIOD   21   TIME STEP   17
 
 SOLVING FOR HEAD 
                                                   Max.-Head-Change                         Max.-Flux-Residual
  Residual-Control   Outer-Iter.   Inner-Iter.     Column Row Layer    Maximum-Head-Change  Column Row Layer    Maximum-Flux-Residual          L2-NORM 
          0                 1           2             4    7     1      -0.5350286116E-01       4    7    1        -0.2808654230E+01      0.8511560241E+01
          0                 2           2             4    7     1       0.5204310836E-02       4    7    1         0.2808614292E+00      0.8511462153E+00
          0                 3           2             4    7     1      -0.3543948475E-03       4    7    1        -0.1966034633E-01      0.5957975584E-01
          0                 4           1             4    7     1       0.1410170001E-04       4    7    1         0.8041091144E-03      0.2436772949E-02

    ------------------------------------------------
       NWT REQUIRED            4 OUTER ITERATIONS 
       AND A TOTAL OF          7 INNER ITERATIONS.
    ------------------------------------------------

 NO OUTPUT CONTROL FOR STRESS PERIOD   21   TIME STEP   18
 
 SOLVING FOR HEAD 
                                                   Max.-Head-Change                         Max.-Flux-Residual
  Residual-Control   Outer-Iter.   Inner-Iter.     Column Row Layer    Maximum-Head-Change  Column Row Layer    Maximum-Flux-Residual          L2-NORM 
          0                 1           2             4    7     1      -0.5297412257E-01       4    7    1        -0.2779841987E+01      0.8472797993E+01
          0                 2           2             4    7     1       0.5152881296E-02       4    7    1         0.2779803660E+00      0.8472707802E+00
          0                 3           2             4    7     1      -0.3508926637E-03       4    7    1        -0.1945867028E-01      0.5930854312E-01
          0                 4           1             4    7     1       0.1396234484E-04       4    7    1         0.7958605652E-03      0.2425695911E-02

    ------------------------------------------------
       NWT REQUIRED            4 OUTER ITERATIONS 
       AND A TOTAL OF          7 INNER ITERATIONS.
    ------------------------------------------------

 NO OUTPUT CONTROL FOR STRESS PERIOD   21   TIME STEP   19
 
 SOLVING FOR HEAD 
                                                   Max.-Head-Change                         Max.-Flux-Residual
  Residual-Control   Outer-Iter.   Inner-Iter.     Column Row Layer    Maximum-Head-Change  Column Row Layer    Maximum-Flux-Residual          L2-NORM 
          0                 1           2             4    7     1      -0.5246962189E-01       4    7    1        -0.2752368726E+01      0.8435808626E+01
          0                 2           2             4    7     1       0.5103809316E-02       4    7    1         0.2752331921E+00      0.8435724752E+00
          0                 3           2             4    7     1      -0.3475510226E-03       4    7    1        -0.1926636659E-01      0.5904970705E-01
          0                 4           1             4    7     1       0.1382937799E-04       4    7    1         0.7879953325E-03      0.2415120141E-02

    ------------------------------------------------
       NWT REQUIRED            4 OUTER ITERATIONS 
       AND A TOTAL OF          7 INNER ITERATIONS.
    ------------------------------------------------

 NO OUTPUT CONTROL FOR STRESS PERIOD   21   TIME STEP   20
 
 SOLVING FOR HEAD 
                                                   Max.-Head-Change                         Max.-Flux-Residual
  Residual-Control   Outer-Iter.   Inner-Iter.     Column Row Layer    Maximum-Head-Change  Column Row Layer    Maximum-Flux-Residual          L2-NORM 
          0                 1           2             4    7     1      -0.5198799160E-01       4    7    1        -0.2726159427E+01      0.8400428397E+01
          0                 2           2             4    7     1       0.5056961879E-02       4    7    1         0.2726124057E+00      0.8400350065E+00
          0                 3           2             4    7     1      -0.3443608657E-03       4    7    1        -0.1908291011E-01      0.5880211367E-01
          0                 4           1             4    7     1       0.1370243887E-04       4    7    1         0.7804919578E-03      0.2404976986E-02

    ------------------------------------------------
       NWT REQUIRED            4 OUTER ITERATIONS 
       AND A TOTAL OF          7 INNER ITERATIONS.
    ------------------------------------------------

 NO OUTPUT CONTROL FOR STRESS PERIOD   21   TIME STEP   21
 
 SOLVING FOR HEAD 
                                                   Max.-Head-Change                         Max.-Flux-Residual
  Residual-Control   Outer-Iter.   Inner-Iter.     Column Row Layer    Maximum-Head-Change  Column Row Layer    Maximum-Flux-Residual          L2-NORM 
          0                 1           2             4    7     1      -0.5152768256E-01       4    7    1        -0.2701128750E+01      0.8366512233E+01
          0                 2           2             4    7     1       0.5012188303E-02       4    7    1         0.2701094735E+00      0.8366439580E+00
          0                 3           2             4    7     1      -0.3413119323E-03       4    7    1        -0.1890770349E-01      0.5856478734E-01
          0                 4           1             4    7     1       0.1358111913E-04       4    7    1         0.7733260120E-03      0.2395280913E-02

    ------------------------------------------------
       NWT REQUIRED            4 OUTER ITERATIONS 
       AND A TOTAL OF          7 INNER ITERATIONS.
    ------------------------------------------------

 NO OUTPUT CONTROL FOR STRESS PERIOD   21   TIME STEP   22
 
 SOLVING FOR HEAD 
                                                   Max.-Head-Change                         Max.-Flux-Residual
  Residual-Control   Outer-Iter.   Inner-Iter.     Column Row Layer    Maximum-Head-Change  Column Row Layer    Maximum-Flux-Residual          L2-NORM 
          0                 1           2             4    7     1      -0.5108749554E-01       4    7    1        -0.2677210805E+01      0.8333932926E+01
          0                 2           2             4    7     1       0.4969371942E-02       4    7    1         0.2677178068E+00      0.8333864823E+00
          0                 3           2             4    7     1      -0.3383962790E-03       4    7    1        -0.1874028555E-01      0.5833680650E-01
          0                 4           1             4    7     1       0.1346510252E-04       4    7    1         0.7664786158E-03      0.2385959160E-02

    ------------------------------------------------
       NWT REQUIRED            4 OUTER ITERATIONS 
       AND A TOTAL OF          7 INNER ITERATIONS.
    ------------------------------------------------

 NO OUTPUT CONTROL FOR STRESS PERIOD   21   TIME STEP   23
 
 SOLVING FOR HEAD 
                                                   Max.-Head-Change                         Max.-Flux-Residual
  Residual-Control   Outer-Iter.   Inner-Iter.     Column Row Layer    Maximum-Head-Change  Column Row Layer    Maximum-Flux-Residual          L2-NORM 
          0                 1           2             4    7     1      -0.5066630451E-01       4    7    1        -0.2654343410E+01      0.8302570122E+01
          0                 2           2             4    7     1       0.4928403269E-02       4    7    1         0.2654311877E+00      0.8302506187E+00
          0                 3           2             4    7     1      -0.3356064473E-03       4    7    1        -0.1858022101E-01      0.5811732342E-01
          0                 4           1             4    7     1       0.1335409234E-04       4    7    1         0.7599319554E-03      0.2376989282E-02

    ------------------------------------------------
       NWT REQUIRED            4 OUTER ITERATIONS 
       AND A TOTAL OF          7 INNER ITERATIONS.
    ------------------------------------------------

 NO OUTPUT CONTROL FOR STRESS PERIOD   21   TIME STEP   24
 
 SOLVING FOR HEAD 
                                                   Max.-Head-Change                         Max.-Flux-Residual
  Residual-Control   Outer-Iter.   Inner-Iter.     Column Row Layer    Maximum-Head-Change  Column Row Layer    Maximum-Flux-Residual          L2-NORM 
          0                 1           2             4    7     1      -0.5026292420E-01       4    7    1        -0.2632460964E+01      0.8272334894E+01
          0                 2           2             4    7     1       0.4889166995E-02       4    7    1         0.2632430567E+00      0.8272274558E+00
          0                 3           2             4    7     1      -0.3329345860E-03       4    7    1        -0.1842705067E-01      0.5790572996E-01
          0                 4           1             4    7     1       0.1324777661E-04       4    7    1         0.7536672833E-03      0.2368337138E-02

    ------------------------------------------------
       NWT REQUIRED            4 OUTER ITERATIONS 
       AND A TOTAL OF          7 INNER ITERATIONS.
    ------------------------------------------------

 NO OUTPUT CONTROL FOR STRESS PERIOD   21   TIME STEP   25
 
 SOLVING FOR HEAD 
                                                   Max.-Head-Change                         Max.-Flux-Residual
  Residual-Control   Outer-Iter.   Inner-Iter.     Column Row Layer    Maximum-Head-Change  Column Row Layer    Maximum-Flux-Residual          L2-NORM 
          0                 1           2             4    7     1      -0.4987623243E-01       4    7    1        -0.2611502012E+01      0.8243125424E+01
          0                 2           2             4    7     1       0.4851553967E-02       4    7    1         0.2611472684E+00      0.8243068283E+00
          0                 3           2             4    7     1      -0.3303732636E-03       4    7    1        -0.1828034443E-01      0.5770130122E-01
          0                 4           1             4    7     1       0.1314585932E-04       4    7    1         0.7476670021E-03      0.2359969185E-02

    ------------------------------------------------
       NWT REQUIRED            4 OUTER ITERATIONS 
       AND A TOTAL OF          7 INNER ITERATIONS.
    ------------------------------------------------

 NO OUTPUT CONTROL FOR STRESS PERIOD   21   TIME STEP   26
 
 SOLVING FOR HEAD 
                                                   Max.-Head-Change                         Max.-Flux-Residual
  Residual-Control   Outer-Iter.   Inner-Iter.     Column Row Layer    Maximum-Head-Change  Column Row Layer    Maximum-Flux-Residual          L2-NORM 
          0                 1           2             4    7     1      -0.4950504492E-01       4    7    1        -0.2591401156E+01      0.8214850161E+01
          0                 2           2             4    7     1       0.4815448995E-02       4    7    1         0.2591372837E+00      0.8214796051E+00
          0                 3           2             4    7     1      -0.3279146349E-03       4    7    1        -0.1813964449E-01      0.5750342223E-01
          0                 4           1             4    7     1       0.1304802861E-04       4    7    1         0.7419123797E-03      0.2351888760E-02

    ------------------------------------------------
       NWT REQUIRED            4 OUTER ITERATIONS 
       AND A TOTAL OF          7 INNER ITERATIONS.
    ------------------------------------------------

 NO OUTPUT CONTROL FOR STRESS PERIOD   21   TIME STEP   27
 
 SOLVING FOR HEAD 
                                                   Max.-Head-Change                         Max.-Flux-Residual
  Residual-Control   Outer-Iter.   Inner-Iter.     Column Row Layer    Maximum-Head-Change  Column Row Layer    Maximum-Flux-Residual          L2-NORM 
          0                 1           2             4    7     1      -0.4914877905E-01       4    7    1        -0.2572125838E+01      0.8187450773E+01
          0                 2           2             4    7     1       0.4780795406E-02       4    7    1         0.2572098469E+00      0.8187399333E+00
          0                 3           2             4    7     1      -0.3255548402E-03       4    7    1        -0.1800472295E-01      0.5731165785E-01
          0                 4           1             4    7     1       0.1295412996E-04       4    7    1         0.7363940701E-03      0.2344032006E-02

    ------------------------------------------------
       NWT REQUIRED            4 OUTER ITERATIONS 
       AND A TOTAL OF          7 INNER ITERATIONS.
    ------------------------------------------------

 NO OUTPUT CONTROL FOR STRESS PERIOD   21   TIME STEP   28
 
 SOLVING FOR HEAD 
                                                   Max.-Head-Change                         Max.-Flux-Residual
  Residual-Control   Outer-Iter.   Inner-Iter.     Column Row Layer    Maximum-Head-Change  Column Row Layer    Maximum-Flux-Residual          L2-NORM 
          0                 1           2             4    7     1      -0.4880622921E-01       4    7    1        -0.2553609791E+01      0.8160849875E+01
          0                 2           2             4    7     1       0.4747475936E-02       4    7    1         0.2553583317E+00      0.8160800819E+00
          0                 3           2             4    7     1      -0.3232858956E-03       4    7    1        -0.1787511600E-01      0.5712548615E-01
          0                 4           1             4    7     1       0.1286384678E-04       4    7    1         0.7310931576E-03      0.2336423791E-02

    ------------------------------------------------
       NWT REQUIRED            4 OUTER ITERATIONS 
       AND A TOTAL OF          7 INNER ITERATIONS.
    ------------------------------------------------

 NO OUTPUT CONTROL FOR STRESS PERIOD   21   TIME STEP   29
 
 SOLVING FOR HEAD 
                                                   Max.-Head-Change                         Max.-Flux-Residual
  Residual-Control   Outer-Iter.   Inner-Iter.     Column Row Layer    Maximum-Head-Change  Column Row Layer    Maximum-Flux-Residual          L2-NORM 
          0                 1           2             4    7     1      -0.4847665564E-01       4    7    1        -0.2535812138E+01      0.8134985036E+01
          0                 2           2             4    7     1       0.4715418628E-02       4    7    1         0.2535786508E+00      0.8134920915E+00
          0                 3           2             4    7     1      -0.3211029000E-03       4    7    1        -0.1775053747E-01      0.5694433303E-01
          0                 4           1             4    7     1       0.1277698347E-04       4    7    1         0.7259978988E-03      0.2329018820E-02

    ------------------------------------------------
       NWT REQUIRED            4 OUTER ITERATIONS 
       AND A TOTAL OF          7 INNER ITERATIONS.
    ------------------------------------------------

 NO OUTPUT CONTROL FOR STRESS PERIOD   21   TIME STEP   30



 STREAM LISTING     PERIOD     21   STEP       30

 LAYER ROW COL. STREAM  RCH.  FLOW INTO     FLOW TO   FLOW OUT OF   OVRLND.     DIRECT     STREAM       STREAM     STREAM     STREAM   STREAMBED  STREAMBED
                SEG.NO.  NO.  STRM. RCH.    AQUIFER    STRM. RCH.    RUNOFF     PRECIP       ET          HEAD       DEPTH      WIDTH   CONDCTNC.   GRADIENT

   1    1    1     1     1    3.7001E+01  2.9351E-01   3.6707E+01  0.000E+00  0.000E+00  0.000E+00  1.09436E+03  1.308E+00  1.514E+01  6.812E-02  1.436E+00
   1    2    2     1     2    3.6707E+01  4.5449E-01   3.6253E+01  0.000E+00  0.000E+00  0.000E+00  1.08936E+03  1.305E+00  1.508E+01  1.056E-01  1.435E+00
   1    3    3     1     3    3.6253E+01  3.8754E-01   3.5865E+01  0.000E+00  0.000E+00  0.000E+00  1.08372E+03  1.302E+00  1.501E+01  9.008E-02  1.434E+00
   1    3    4     1     4    3.5865E+01  3.5682E-01   3.5508E+01  0.000E+00  0.000E+00  0.000E+00  1.07871E+03  1.299E+00  1.495E+01  8.300E-02  1.433E+00
   1    4    5     2     1    3.3508E+01  3.4594E-01   3.3162E+01  0.000E+00  0.000E+00  0.000E+00  1.07337E+03  1.435E+00  1.200E+01  7.800E-02  1.478E+00
   1    5    6     2     2    3.3162E+01  2.6563E-01   3.2897E+01  0.000E+00  0.000E+00  0.000E+00  1.06794E+03  1.427E+00  1.200E+01  6.000E-02  1.476E+00
   1    6    6     2     3    3.2897E+01  2.6522E-01   3.2631E+01  0.000E+00  0.000E+00  0.000E+00  1.06321E+03  1.420E+00  1.200E+01  6.000E-02  1.473E+00
   1    7    6     2     4    3.2631E+01  2.6480E-01   3.2367E+01  0.000E+00  0.000E+00  0.000E+00  1.05849E+03  1.413E+00  1.200E+01  6.000E-02  1.471E+00
   1    8    6     2     5    3.2367E+01  2.6439E-01   3.2102E+01  0.000E+00  0.000E+00  0.000E+00  1.05377E+03  1.406E+00  1.200E+01  6.000E-02  1.469E+00
   1    3    5     3     1    2.0000E+00  2.8252E-01   1.7175E+00  0.000E+00  0.000E+00  0.000E+00  1.07555E+03  1.909E+00  9.636E+00  7.227E-02  1.955E+00
   1    3    6     3     2    1.7175E+00  2.4905E-01   1.4684E+00  0.000E+00  0.000E+00  0.000E+00  1.07264E+03  1.727E+00  8.909E+00  6.682E-02  1.864E+00
   1    3    7     3     3    1.4684E+00  1.9718E-01   1.2712E+00  0.000E+00  0.000E+00  0.000E+00  1.06987E+03  1.555E+00  8.218E+00  5.547E-02  1.777E+00
   1    4    8     3     4    1.2712E+00  2.2567E-01   1.0456E+00  0.000E+00  0.000E+00  0.000E+00  1.06682E+03  1.364E+00  7.455E+00  6.709E-02  1.682E+00
   1    5    8     3     5    1.0456E+00  1.5790E-01   8.8768E-01  0.000E+00  0.000E+00  0.000E+00  1.06362E+03  1.164E+00  6.655E+00  4.991E-02  1.582E+00
   1    6    8     3     6    8.8768E-01  5.5980E-02   8.3170E-01  0.000E+00  0.000E+00  0.000E+00  1.06158E+03  1.036E+00  6.145E+00  1.844E-02  1.518E+00
   1    5   10     4     1    1.0000E+01  9.0919E-02   9.9091E+00  0.000E+00  0.000E+00  0.000E+00  1.07836E+03  6.368E-01  1.000E+01  2.500E-02  1.212E+00
   1    5    9     4     2    9.9091E+00  1.8158E-01   9.7275E+00  0.000E+00  0.000E+00  0.000E+00  1.07154E+03  6.315E-01  1.000E+01  5.000E-02  1.211E+00
   1    6    8     4     3    9.7275E+00  1.2689E-01   9.6006E+00  0.000E+00  0.000E+00  0.000E+00  1.06381E+03  6.256E-01  1.000E+01  3.500E-02  1.209E+00
   1    6    8     5     1    1.0432E+01  2.2686E-01   1.0205E+01  0.000E+00  0.000E+00  0.000E+00  1.05868E+03  6.790E-01  1.542E+01  6.166E-02  1.226E+00
   1    7    7     5     2    1.0205E+01  2.7894E-01   9.9265E+00  0.000E+00  0.000E+00  0.000E+00  1.05417E+03  6.732E-01  1.519E+01  7.594E-02  1.224E+00
   1    8    7     5     3    9.9265E+00  1.9221E-01   9.7343E+00  0.000E+00  0.000E+00  0.000E+00  1.04992E+03  6.676E-01  1.497E+01  5.241E-02  1.223E+00
   1    8    6     5     4    9.7343E+00  1.3577E-01   9.5985E+00  0.000E+00  0.000E+00  0.000E+00  1.04691E+03  6.637E-01  1.482E+01  3.706E-02  1.221E+00
   1    9    6     6     1    4.1701E+01  2.7939E-01   4.1421E+01  0.000E+00  0.000E+00  0.000E+00  1.04438E+03  1.656E+00  1.200E+01  6.000E-02  1.552E+00
   1   10    7     6     2    4.1421E+01  2.7899E-01   4.1142E+01  0.000E+00  0.000E+00  0.000E+00  1.03983E+03  1.650E+00  1.200E+01  6.000E-02  1.550E+00
   1   11    7     6     3    4.1142E+01  2.7859E-01   4.0864E+01  0.000E+00  0.000E+00  0.000E+00  1.03528E+03  1.643E+00  1.200E+01  6.000E-02  1.548E+00
   1   12    7     6     4    4.0864E+01  2.7818E-01   4.0586E+01  0.000E+00  0.000E+00  0.000E+00  1.03073E+03  1.636E+00  1.200E+01  6.000E-02  1.545E+00
   1   13    7     6     5    4.0586E+01  1.1537E-02   4.0574E+01  0.000E+00  0.000E+00  0.000E+00  1.02754E+03  1.633E+00  1.200E+01  2.400E-02  1.602E-01
   1   14    9     7     1    1.5000E+02  1.3338E+00   1.4867E+02  0.000E+00  0.000E+00  0.000E+00  1.03987E+03  2.288E+00  5.529E+01  5.593E-01  7.949E-01
   1   13    8     7     2    1.4867E+02  1.8357E+00   1.4683E+02  0.000E+00  0.000E+00  0.000E+00  1.03478E+03  2.279E+00  5.526E+01  6.148E-01  9.953E-01
   1   13    7     7     3    1.4683E+02  1.4679E+00   1.4536E+02  0.000E+00  0.000E+00  0.000E+00  1.02969E+03  2.270E+00  5.522E+01  5.585E-01  8.762E-01
   1   13    6     8     1    1.8594E+02  9.8252E-01   1.8495E+02  0.000E+00  0.000E+00  0.000E+00  1.02493E+03  3.050E+00  4.423E+01  4.507E-01  7.267E-01
   1   13    5     8     2    1.8495E+02  2.1125E-01   1.8474E+02  0.000E+00  0.000E+00  0.000E+00  1.01867E+03  3.046E+00  4.417E+01  4.501E-01  1.564E-01
   1   13    4     8     3    1.8474E+02 -2.3504E+00   1.8709E+02  0.000E+00  0.000E+00  0.000E+00  1.01243E+03  3.053E+00  4.427E+01  4.511E+00 -1.737E-01
   1   13    3     8     4    1.8709E+02 -3.6181E+00   1.9071E+02  0.000E+00  0.000E+00  0.000E+00  1.00620E+03  3.071E+00  4.453E+01  4.538E+00 -2.658E-01
   1   13    2     8     5    1.9071E+02 -2.5883E+00   1.9330E+02  0.000E+00  0.000E+00  0.000E+00  9.99965E+02  3.090E+00  4.481E+01  4.566E+00 -1.890E-01
   1   13    1     8     6    1.9330E+02 -2.0212E+00   1.9532E+02  0.000E+00  0.000E+00  0.000E+00  9.94979E+02  3.104E+00  4.501E+01  2.752E+00 -2.448E-01





UNSATURATED ZONE PACKAGE VOLUMETRIC BUDGET FOR  TIME STEP    30 STRESS PERIOD   21
  ------------------------------------------------------------------------------



     CUMULATIVE VOLUMES      L**3       RATES FOR THIS TIME STEP      L**3/T
     ------------------                 ------------------------

           IN:                                      IN:
           ---                                      ---
        INFILTRATION =   967698656.4639          INFILTRATION =          49.5675

          OUT:                                     OUT:
          ----                                     ----
              UZF ET =   822847131.3172                UZF ET =          49.5675
        UZF RECHARGE =    72392846.7693          UZF RECHARGE =       0.0000E+00

            IN - OUT =    72458678.3774              IN - OUT =       0.0000E+00

          STORAGE:                                 STORAGE:
          --------                                 --------
      STORAGE CHANGE =    72458690.6061        STORAGE CHANGE =      -1.1948E-13

 PERCENT DISCREPANCY IS DIFFERENCE BETWEEN IN-OUT MINUS CHANGE IN STORAGE
 DIVIDED BY THE AVERAGE OF IN AND OUT TIMES 100

 PERCENT DISCREPANCY =           0.00     PERCENT DISCREPANCY =           0.00






1
  VOLUMETRIC BUDGET FOR AGRICULTURAL FIELDS AT  END OF TIME STEP   30, STRESS PERIOD  21
  ------------------------------------------------------------------------------

     CUMULATIVE VOLUMES      L**3       RATES FOR THIS TIME STEP      L**3/T
     ------------------                 ------------------------

           IN:                                      IN:
           ---                                      ---
               AG WELLS  =   923045952.0000                 AG WELLS  =          48.7200
      DIVERSION SEGMENTS =           0.0000        DIVERSION SEGMENTS =           0.0000
           GW IRRIGATION =           0.0000             GW IRRIGATION =           0.0000
           SW IRRIGATION =           0.0000             SW IRRIGATION =           0.0000
        SYSTEM LOSSES GW =           0.0000          SYSTEM LOSSES GW =           0.0000
        SYSTEM LOSSES SW =           0.0000          SYSTEM LOSSES SW =           0.0000

                TOTAL IN =   923045952.0000                  TOTAL IN =          48.7200

          OUT:                                     OUT:
          ----                                     ----
               AG WELLS  =           0.0000                 AG WELLS  =           0.0000
      DIVERSION SEGMENTS =           0.0000        DIVERSION SEGMENTS =           0.0000
           GW IRRIGATION =   923045952.0000             GW IRRIGATION =          48.7200
           SW IRRIGATION =           0.0000             SW IRRIGATION =           0.0000
        SYSTEM LOSSES GW =           0.0000          SYSTEM LOSSES GW =           0.0000
        SYSTEM LOSSES SW =           0.0000          SYSTEM LOSSES SW =           0.0000

               TOTAL OUT =   923045952.0000                 TOTAL OUT =          48.7200

                IN - OUT =           0.0000                  IN - OUT =           0.0000

     PERCENT DISCREPANCY =           0.00         PERCENT DISCREPANCY =           0.00



1
  VOLUMETRIC BUDGET FOR ENTIRE MODEL AT END OF TIME STEP   30, STRESS PERIOD  21
  ------------------------------------------------------------------------------

     CUMULATIVE VOLUMES      L**3       RATES FOR THIS TIME STEP      L**3/T
     ------------------                 ------------------------

           IN:                                      IN:
           ---                                      ---
             STORAGE     =  1063634368.0000               STORAGE     =          47.2807
       CONSTANT HEAD     =           0.0000         CONSTANT HEAD     =           0.0000
     HEAD DEP BOUNDS     =    15038317.0000       HEAD DEP BOUNDS     =           0.2856
      STREAM LEAKAGE     =   662104576.0000        STREAM LEAKAGE     =          12.2576
        UZF RECHARGE     =    72392816.0000          UZF RECHARGE     =           0.0000
               GW ET     =           0.0000                 GW ET     =           0.0000
     SURFACE LEAKAGE     =           0.0000       SURFACE LEAKAGE     =           0.0000
           AG WELLS      =           0.0000             AG WELLS      =           0.0000

                TOTAL IN =  1813170048.0000                  TOTAL IN =          59.8239

          OUT:                                     OUT:
          ----                                     ----
             STORAGE     =   313592224.0000               STORAGE     =           0.2331
       CONSTANT HEAD     =           0.0000         CONSTANT HEAD     =           0.0000
     HEAD DEP BOUNDS     =    15529186.0000       HEAD DEP BOUNDS     =           0.2931
      STREAM LEAKAGE     =   543494720.0000        STREAM LEAKAGE     =          10.5779
        UZF RECHARGE     =           0.0000          UZF RECHARGE     =           0.0000
               GW ET     =    17516202.0000                 GW ET     =           0.0000
     SURFACE LEAKAGE     =           0.0000       SURFACE LEAKAGE     =           0.0000
           AG WELLS      =   923045952.0000             AG WELLS      =          48.7200

               TOTAL OUT =  1813178368.0000                 TOTAL OUT =          59.8241

                IN - OUT =       -8320.0000                  IN - OUT =      -1.6785E-04

     PERCENT DISCREPANCY =          -0.00         PERCENT DISCREPANCY =          -0.00






         TIME SUMMARY AT END OF TIME STEP   30 IN STRESS PERIOD   21
                    SECONDS     MINUTES      HOURS       DAYS        YEARS
                    -----------------------------------------------------------
   TIME STEP LENGTH  87667.      1461.1      24.352      1.0147     2.77799E-03
 STRESS PERIOD TIME 2.63000E+06  43833.      730.56      30.440     8.33397E-02
         TOTAL TIME 5.26866E+07 8.78110E+05  14635.      609.80      1.6695    
1
1
                            STRESS PERIOD NO.   22, LENGTH =   2630000.    
                            -----------------------------------------------

                              NUMBER OF TIME STEPS =    30

                               MULTIPLIER FOR DELT =     1.000

                            INITIAL TIME STEP SIZE =   87666.66    

 REUSING NON-PARAMETER GHB CELLS FROM LAST STRESS PERIOD

      2 GHB CELLS

 REUSING STREAM SEGMENT DATA FROM LAST STRESS PERIOD



            AREAL INFILTRATION RATE
 READING ON UNIT   19 WITH FORMAT: (FREE)              

            1           2           3           4           5           6           7           8           9          10
 ........................................................................................................................
   1   1.0000E-10  2.0000E-10   0.000       0.000       0.000       0.000       0.000       0.000       0.000       0.000    
   2   2.0000E-10  1.0000E-10  2.0000E-10   0.000       0.000      8.0000E-10  8.0000E-10  5.0000E-10   0.000       0.000    
   3    0.000      5.0000E-10  1.0000E-10  1.0000E-10  8.0000E-10  8.0000E-10  5.0000E-10  5.0000E-10   0.000       0.000    
   4   8.0000E-10  5.0000E-10  1.0000E-10  1.0000E-10  1.0000E-10  1.0000E-10  1.0000E-10  1.0000E-10  2.0000E-10   0.000    
   5   8.0000E-10  5.0000E-10  1.0000E-10  1.0000E-10  1.0000E-10  1.0000E-10  1.0000E-10  1.0000E-10  1.0000E-10  1.0000E-10
   6   8.0000E-10  5.0000E-10  5.0000E-10  2.0000E-10  2.0000E-10  1.0000E-10  1.0000E-10  1.0000E-10  1.0000E-10  5.0000E-10
   7   8.0000E-10  5.0000E-10  5.0000E-10  2.0000E-10  2.0000E-10  1.0000E-10  1.0000E-10  2.0000E-10  2.0000E-10   0.000    
   8    0.000      5.0000E-10  5.0000E-10  2.0000E-10  2.0000E-10  1.0000E-10  1.0000E-10  2.0000E-10  5.0000E-10   0.000    
   9    0.000      5.0000E-10  5.0000E-10  2.0000E-10  2.0000E-10  1.0000E-10  1.0000E-10  2.0000E-10  5.0000E-10   0.000    
  10    0.000      5.0000E-10  5.0000E-10  2.0000E-10  2.0000E-10  1.0000E-10  1.0000E-10  2.0000E-10  5.0000E-10  8.0000E-10
  11    0.000      1.0000E-10  1.0000E-10  1.0000E-10  1.0000E-10  1.0000E-10  1.0000E-10  2.0000E-10  5.0000E-10   0.000    
  12   1.0000E-10  1.0000E-10  1.0000E-10  1.0000E-10  1.0000E-10  1.0000E-10  1.0000E-10  1.0000E-10  2.0000E-10   0.000    
  13   1.0000E-10  1.0000E-10  2.0000E-10  2.0000E-10  2.0000E-10  2.0000E-10  2.0000E-10  1.0000E-10  1.0000E-10   0.000    
  14    0.000      2.0000E-10  5.0000E-10  5.0000E-10  5.0000E-10  5.0000E-10  5.0000E-10  2.0000E-10  1.0000E-10   0.000    
  15    0.000       0.000      8.0000E-10  8.0000E-10  8.0000E-10  8.0000E-10   0.000       0.000       0.000       0.000    

                  ET RATE =  7.500000E-08

 USING ET EXTINCTION DEPTH FROM PREVIOUS STRESS PERIOD. CURRENT PERIOD IS:      22

 USING EXTINCTION WATER CONTENT FROM PREVIOUS STRESS PERIOD. CURRENT PERIOD IS:      22

 USING AIR ENTRY PRESSURE FROM PREVIOUS STRESS PERIOD. CURRENT PERIOD IS:      22

 USING ROOT PRESSURE HEAD FROM PREVIOUS STRESS PERIOD. CURRENT PERIOD IS:      22

 USING ROOT ACTIVITY FROM PREVIOUS STRESS PERIOD. CURRENT PERIOD IS:      22

 PROCESSING AG STRESS PERIOD DATA

 READING AG STRESS PERIOD DATA

 READING IRRIGATION WELL

 END PROCESSING AG STRESS PERIOD DATA OPTIONS
 
 SOLVING FOR HEAD 
                                                   Max.-Head-Change                         Max.-Flux-Residual
  Residual-Control   Outer-Iter.   Inner-Iter.     Column Row Layer    Maximum-Head-Change  Column Row Layer    Maximum-Flux-Residual          L2-NORM 
          0                 1           2             5    8     1       0.8205150161E-01       5    8    1         0.4456476620E+01      0.1203026664E+02
          0                 2           2             5    8     1      -0.7981222572E-02       5    8    1        -0.4456371655E+00      0.1202953615E+01
          0                 3           2             5    8     1       0.5434910613E-03       5    8    1         0.3119459629E-01      0.8420283870E-01
          0                 4           1             5    8     1      -0.2162601135E-04       5    8    1        -0.1275860300E-02      0.3443734505E-02

    ------------------------------------------------
       NWT REQUIRED            4 OUTER ITERATIONS 
       AND A TOTAL OF          7 INNER ITERATIONS.
    ------------------------------------------------

 NO OUTPUT CONTROL FOR STRESS PERIOD   22   TIME STEP    1
 
 SOLVING FOR HEAD 
                                                   Max.-Head-Change                         Max.-Flux-Residual
  Residual-Control   Outer-Iter.   Inner-Iter.     Column Row Layer    Maximum-Head-Change  Column Row Layer    Maximum-Flux-Residual          L2-NORM 
          0                 1           2             5    8     1       0.7856692275E-01       5    8    1         0.4263813712E+01      0.1167618819E+02
          0                 2           2             5    8     1      -0.7642277893E-02       5    8    1        -0.4263715564E+00      0.1167539772E+01
          0                 3           2             5    8     1       0.5204100893E-03       5    8    1         0.2984599662E-01      0.8172292580E-01
          0                 4           1             5    8     1      -0.2070759842E-04       5    8    1        -0.1220702536E-02      0.3342159579E-02

    ------------------------------------------------
       NWT REQUIRED            4 OUTER ITERATIONS 
       AND A TOTAL OF          7 INNER ITERATIONS.
    ------------------------------------------------

 NO OUTPUT CONTROL FOR STRESS PERIOD   22   TIME STEP    2
 
 SOLVING FOR HEAD 
                                                   Max.-Head-Change                         Max.-Flux-Residual
  Residual-Control   Outer-Iter.   Inner-Iter.     Column Row Layer    Maximum-Head-Change  Column Row Layer    Maximum-Flux-Residual          L2-NORM 
          0                 1           2             5    6     1       0.7534572829E-01       5    8    1         0.4082737713E+01      0.1133460521E+02
          0                 2           2             5    6     1      -0.7328946636E-02       5    8    1        -0.4082646046E+00      0.1133389961E+01
          0                 3           2             5    6     1       0.4990733585E-03       5    8    1         0.2857850332E-01      0.7933296381E-01
          0                 4           1             5    6     1      -0.1985854606E-04       5    8    1        -0.1168861991E-02      0.3244427529E-02

    ------------------------------------------------
       NWT REQUIRED            4 OUTER ITERATIONS 
       AND A TOTAL OF          7 INNER ITERATIONS.
    ------------------------------------------------

 NO OUTPUT CONTROL FOR STRESS PERIOD   22   TIME STEP    3
 
 SOLVING FOR HEAD 
                                                   Max.-Head-Change                         Max.-Flux-Residual
  Residual-Control   Outer-Iter.   Inner-Iter.     Column Row Layer    Maximum-Head-Change  Column Row Layer    Maximum-Flux-Residual          L2-NORM 
          0                 1           2             5    8     1       0.1549910969E+00       5    8    1         0.8480689421E+01      0.1333584562E+02
          0                 2           2             5    8     1      -0.9311401237E-02       5    8    1        -0.5210262364E+00      0.1153482504E+01
          0                 3           2             5    8     1      -0.2631390096E-02       5    8    1        -0.1497828402E+00      0.1662037041E+00
          0                 4           1             5    8     1      -0.7436101983E-03       5    8    1        -0.4215989182E-01      0.4226499988E-01
          0                 5           1             5    8     1      -0.2101333278E-03       5    8    1        -0.1191897627E-01      0.1191914227E-01
          0                 6           1             5    8     1      -0.5937918104E-04       5    8    1        -0.3368061500E-02      0.3378187377E-02

    ------------------------------------------------
       NWT REQUIRED            6 OUTER ITERATIONS 
       AND A TOTAL OF          9 INNER ITERATIONS.
    ------------------------------------------------

 NO OUTPUT CONTROL FOR STRESS PERIOD   22   TIME STEP    4
 
 SOLVING FOR HEAD 
                                                   Max.-Head-Change                         Max.-Flux-Residual
  Residual-Control   Outer-Iter.   Inner-Iter.     Column Row Layer    Maximum-Head-Change  Column Row Layer    Maximum-Flux-Residual          L2-NORM 
          0                 1           2             5    8     1       0.1476034719E+00       5    8    1         0.8069216118E+01      0.1289298643E+02
          0                 2           2             5    8     1       0.3874199458E-01       5    8    1         0.2145533405E+01      0.2369458098E+01
          0                 3           2             5    8     1       0.1016867973E-01       5    8    1         0.5605604235E+00      0.5650252121E+00
          0                 4           1             5    8     1       0.2669010967E-02       5    8    1         0.1472825528E+00      0.1473087585E+00
          0                 5           1             5    8     1       0.7005459614E-03       5    8    1         0.3865186101E-01      0.3865286607E-01
          0                 6           1             5    8     1       0.1838751578E-03       5    8    1         0.1014528808E-01      0.1014547523E-01
          0                 7           1             5    8     1       0.4826246713E-04       5    8    1         0.2662874458E-02      0.2662925207E-02

    ------------------------------------------------
       NWT REQUIRED            7 OUTER ITERATIONS 
       AND A TOTAL OF         10 INNER ITERATIONS.
    ------------------------------------------------

 NO OUTPUT CONTROL FOR STRESS PERIOD   22   TIME STEP    5
 
 SOLVING FOR HEAD 
                                                   Max.-Head-Change                         Max.-Flux-Residual
  Residual-Control   Outer-Iter.   Inner-Iter.     Column Row Layer    Maximum-Head-Change  Column Row Layer    Maximum-Flux-Residual          L2-NORM 
          0                 1           2             5    8     1       0.1362609615E+00       5    8    1         0.7436753634E+01      0.1235187338E+02
          0                 2           2             5    7     1      -0.7094791703E-02       5    7    1        -0.3900896574E+00      0.1011677456E+01
          0                 3           2             5    7     1       0.4831239790E-03       5    7    1         0.2730617200E-01      0.7081157011E-01
          0                 4           1             5    7     1      -0.1922375976E-04       5    7    1        -0.1116823972E-02      0.2895840135E-02

    ------------------------------------------------
       NWT REQUIRED            4 OUTER ITERATIONS 
       AND A TOTAL OF          7 INNER ITERATIONS.
    ------------------------------------------------

 NO OUTPUT CONTROL FOR STRESS PERIOD   22   TIME STEP    6
 
 SOLVING FOR HEAD 
                                                   Max.-Head-Change                         Max.-Flux-Residual
  Residual-Control   Outer-Iter.   Inner-Iter.     Column Row Layer    Maximum-Head-Change  Column Row Layer    Maximum-Flux-Residual          L2-NORM 
          0                 1           2             5    8     1       0.1293145116E+00       5    8    1         0.7050589533E+01      0.1195194534E+02
          0                 2           2             5    8     1      -0.1257262330E-01       5    8    1        -0.7047146870E+00      0.1194945144E+01
          0                 3           2             5    8     1       0.8555287282E-03       5    8    1         0.4929384376E-01      0.8362252902E-01
          0                 4           1             5    8     1      -0.3400160221E-04       5    8    1        -0.2013682189E-02      0.3418609207E-02

    ------------------------------------------------
       NWT REQUIRED            4 OUTER ITERATIONS 
       AND A TOTAL OF          7 INNER ITERATIONS.
    ------------------------------------------------

 NO OUTPUT CONTROL FOR STRESS PERIOD   22   TIME STEP    7
 
 SOLVING FOR HEAD 
                                                   Max.-Head-Change                         Max.-Flux-Residual
  Residual-Control   Outer-Iter.   Inner-Iter.     Column Row Layer    Maximum-Head-Change  Column Row Layer    Maximum-Flux-Residual          L2-NORM 
          0                 1           2             5    8     1       0.1233561745E+00       5    8    1         0.6719813870E+01      0.1159097712E+02
          0                 2           2             5    8     1      -0.1199330019E-01       5    8    1        -0.6716513669E+00      0.1158864938E+01
          0                 3           2             5    8     1       0.8161076885E-03       5    8    1         0.4698108846E-01      0.8109845402E-01
          0                 4           1             5    8     1      -0.3243487652E-04       5    8    1        -0.1919202690E-02      0.3315431679E-02

    ------------------------------------------------
       NWT REQUIRED            4 OUTER ITERATIONS 
       AND A TOTAL OF          7 INNER ITERATIONS.
    ------------------------------------------------

 NO OUTPUT CONTROL FOR STRESS PERIOD   22   TIME STEP    8
 
 SOLVING FOR HEAD 
                                                   Max.-Head-Change                         Max.-Flux-Residual
  Residual-Control   Outer-Iter.   Inner-Iter.     Column Row Layer    Maximum-Head-Change  Column Row Layer    Maximum-Flux-Residual          L2-NORM 
          0                 1           2             5    8     1       0.1177750034E+00       5    8    1         0.6410192363E+01      0.1125112210E+02
          0                 2           2             5    8     1      -0.1145065073E-01       5    8    1        -0.6407027144E+00      0.1124894746E+01
          0                 3           2             5    8     1       0.7791821494E-03       5    8    1         0.4481625232E-01      0.7872198943E-01
          0                 4           1             5    8     1      -0.3096733014E-04       5    8    1        -0.1830765954E-02      0.3218354680E-02

    ------------------------------------------------
       NWT REQUIRED            4 OUTER ITERATIONS 
       AND A TOTAL OF          7 INNER ITERATIONS.
    ------------------------------------------------

 NO OUTPUT CONTROL FOR STRESS PERIOD   22   TIME STEP    9
 
 SOLVING FOR HEAD 
                                                   Max.-Head-Change                         Max.-Flux-Residual
  Residual-Control   Outer-Iter.   Inner-Iter.     Column Row Layer    Maximum-Head-Change  Column Row Layer    Maximum-Flux-Residual          L2-NORM 
          0                 1           2             5    8     1       0.1125436455E+00       5    8    1         0.6120180333E+01      0.1093063766E+02
          0                 2           2             5    8     1       0.8993233283E-02       5    8    1         0.5053845791E+00      0.1037093553E+01
          0                 3           2             5    8     1       0.2360304480E-02       5    8    1         0.1296101510E+00      0.1443476821E+00
          0                 4           1             5    8     1       0.6194723737E-03       5    8    1         0.3420664691E-01      0.3430006814E-01
          0                 5           1             5    8     1       0.1625832980E-03       5    8    1         0.8969623536E-02      0.8970200556E-02
          0                 6           1             5    8     1       0.4267071778E-04       5    8    1         0.2354066403E-02      0.2354228620E-02

    ------------------------------------------------
       NWT REQUIRED            6 OUTER ITERATIONS 
       AND A TOTAL OF          9 INNER ITERATIONS.
    ------------------------------------------------

 NO OUTPUT CONTROL FOR STRESS PERIOD   22   TIME STEP   10
 
 SOLVING FOR HEAD 
                                                   Max.-Head-Change                         Max.-Flux-Residual
  Residual-Control   Outer-Iter.   Inner-Iter.     Column Row Layer    Maximum-Head-Change  Column Row Layer    Maximum-Flux-Residual          L2-NORM 
          0                 1           2             5    8     1       0.1062180556E+00       5    8    1         0.5768923418E+01      0.1059567319E+02
          0                 2           2             5    8     1       0.2787684545E-01       5    8    1         0.1547757199E+01      0.1784759824E+01
          0                 3           2             5    8     1       0.7316203961E-02       5    8    1         0.4030744453E+00      0.4079222464E+00
          0                 4           1             5    8     1       0.1920129259E-02       5    8    1         0.1059774637E+00      0.1060039528E+00
          0                 5           1             5    8     1       0.5039360981E-03       5    8    1         0.2780704976E-01      0.2780761583E-01
          0                 6           1             5    8     1       0.1322575825E-03       5    8    1         0.7298126498E-02      0.7298194693E-02
          0                 7           1             5    8     1       0.3471088768E-04       5    8    1         0.1915384986E-02      0.1915404986E-02

    ------------------------------------------------
       NWT REQUIRED            7 OUTER ITERATIONS 
       AND A TOTAL OF         10 INNER ITERATIONS.
    ------------------------------------------------

 NO OUTPUT CONTROL FOR STRESS PERIOD   22   TIME STEP   11
 
 SOLVING FOR HEAD 
                                                   Max.-Head-Change                         Max.-Flux-Residual
  Residual-Control   Outer-Iter.   Inner-Iter.     Column Row Layer    Maximum-Head-Change  Column Row Layer    Maximum-Flux-Residual          L2-NORM 
          0                 1           2             4    8     1       0.1531056245E+00       4    8    1         0.8201538270E+01      0.1261279148E+02
          0                 2           2             4    8     1      -0.1479349595E-01       4    8    1        -0.8197516534E+00      0.1157211682E+01
          0                 3           2             4    8     1       0.1006637144E-02       4    8    1         0.5734003143E-01      0.8097174084E-01
          0                 4           1             4    8     1      -0.4000615485E-04       4    8    1        -0.2342341106E-02      0.3311186560E-02

    ------------------------------------------------
       NWT REQUIRED            4 OUTER ITERATIONS 
       AND A TOTAL OF          7 INNER ITERATIONS.
    ------------------------------------------------

 NO OUTPUT CONTROL FOR STRESS PERIOD   22   TIME STEP   12
 
 SOLVING FOR HEAD 
                                                   Max.-Head-Change                         Max.-Flux-Residual
  Residual-Control   Outer-Iter.   Inner-Iter.     Column Row Layer    Maximum-Head-Change  Column Row Layer    Maximum-Flux-Residual          L2-NORM 
          0                 1           2             5    7     1       0.1515390417E+00       5    7    1         0.8200418217E+01      0.1432993719E+02
          0                 2           2             5    7     1      -0.1473358779E-01       5    7    1        -0.8196567309E+00      0.1432419471E+01
          0                 3           2             5    7     1       0.1002566712E-02       5    7    1         0.5733341408E-01      0.1002112260E+00
          0                 4           1             5    7     1      -0.3984494352E-04       5    7    1        -0.2342082738E-02      0.4094714381E-02

    ------------------------------------------------
       NWT REQUIRED            4 OUTER ITERATIONS 
       AND A TOTAL OF          7 INNER ITERATIONS.
    ------------------------------------------------

 NO OUTPUT CONTROL FOR STRESS PERIOD   22   TIME STEP   13
 
 SOLVING FOR HEAD 
                                                   Max.-Head-Change                         Max.-Flux-Residual
  Residual-Control   Outer-Iter.   Inner-Iter.     Column Row Layer    Maximum-Head-Change  Column Row Layer    Maximum-Flux-Residual          L2-NORM 
          0                 1           2             5    7     1       0.1468418611E+00       5    7    1         0.7896559600E+01      0.1476769901E+02
          0                 2           2             5    6     1       0.2217899027E-01       5    6    1         0.1238174232E+01      0.1844247525E+01
          0                 3           2             5    6     1      -0.2156353166E-02       5    6    1        -0.1233538205E+00      0.1563170434E+00
          0                 4           2             5    6     1       0.1467345045E-03       5    6    1         0.8601206654E-02      0.9470302504E-02
          0                 5           1             5    6     1      -0.5831748417E-05       5    6    1        -0.3502859433E-03      0.3543169847E-03

    ------------------------------------------------
       NWT REQUIRED            5 OUTER ITERATIONS 
       AND A TOTAL OF          9 INNER ITERATIONS.
    ------------------------------------------------

 NO OUTPUT CONTROL FOR STRESS PERIOD   22   TIME STEP   14
 
 SOLVING FOR HEAD 
                                                   Max.-Head-Change                         Max.-Flux-Residual
  Residual-Control   Outer-Iter.   Inner-Iter.     Column Row Layer    Maximum-Head-Change  Column Row Layer    Maximum-Flux-Residual          L2-NORM 
          0                 1           2             5    7     1       0.1429721516E+00       5    7    1         0.7657600897E+01      0.1512574448E+02
          0                 2           2             4    8     1       0.1805157529E-01       4    8    1         0.9902829511E+00      0.1496541602E+01
          0                 3           2             4    8     1       0.4848561798E-02       4    8    1         0.2623621056E+00      0.2931141795E+00
          0                 4           2             4    8     1       0.1302289673E-02       4    8    1         0.7069770430E-01      0.7673640780E-01
          0                 5           2             4    8     1       0.3497820778E-03       4    8    1         0.1897945750E-01      0.2075308276E-01
          0                 6           1             4    8     1       0.9394694745E-04       4    8    1         0.5097657270E-02      0.5620709040E-02

    ------------------------------------------------
       NWT REQUIRED            6 OUTER ITERATIONS 
       AND A TOTAL OF         11 INNER ITERATIONS.
    ------------------------------------------------

 NO OUTPUT CONTROL FOR STRESS PERIOD   22   TIME STEP   15
 
 SOLVING FOR HEAD 
                                                   Max.-Head-Change                         Max.-Flux-Residual
  Residual-Control   Outer-Iter.   Inner-Iter.     Column Row Layer    Maximum-Head-Change  Column Row Layer    Maximum-Flux-Residual          L2-NORM 
          0                 1           2             5    7     1       0.1385911945E+00       5    7    1         0.7417528030E+01      0.1469703986E+02
          0                 2           2             5    7     1       0.3637255366E-01       5    7    1         0.2030434197E+01      0.2807018038E+01
          0                 3           2             5    7     1       0.9541168801E-02       5    7    1         0.5251272285E+00      0.5549064375E+00
          0                 4           2             5    7     1       0.2502824829E-02       5    7    1         0.1382155999E+00      0.1387043748E+00
          0                 5           2             5    7     1       0.6565373720E-03       5    7    1         0.3623808939E-01      0.3624228067E-01
          0                 6           2             5    7     1       0.1722219703E-03       5    7    1         0.9506640030E-02      0.9506756430E-02
          0                 7           1             5    7     1       0.4517702927E-04       5    7    1         0.2493742374E-02      0.2493778160E-02

    ------------------------------------------------
       NWT REQUIRED            7 OUTER ITERATIONS 
       AND A TOTAL OF         13 INNER ITERATIONS.
    ------------------------------------------------

 NO OUTPUT CONTROL FOR STRESS PERIOD   22   TIME STEP   16
 
 SOLVING FOR HEAD 
                                                   Max.-Head-Change                         Max.-Flux-Residual
  Residual-Control   Outer-Iter.   Inner-Iter.     Column Row Layer    Maximum-Head-Change  Column Row Layer    Maximum-Flux-Residual          L2-NORM 
          0                 1           2             5    7     1       0.1307443299E+00       5    7    1         0.6983208532E+01      0.1424372945E+02
          0                 2           2             4    8     1      -0.1245608663E-01       4    8    1        -0.6901611211E+00      0.1143373417E+01
          0                 3           2             4    8     1       0.8423101197E-03       4    8    1         0.4827549483E-01      0.8175266364E-01
          0                 4           1             5    8     1      -0.8149572974E-04       5    8    1        -0.4590609840E-02      0.5636815740E-02

    ------------------------------------------------
       NWT REQUIRED            4 OUTER ITERATIONS 
       AND A TOTAL OF          7 INNER ITERATIONS.
    ------------------------------------------------

 NO OUTPUT CONTROL FOR STRESS PERIOD   22   TIME STEP   17
 
 SOLVING FOR HEAD 
                                                   Max.-Head-Change                         Max.-Flux-Residual
  Residual-Control   Outer-Iter.   Inner-Iter.     Column Row Layer    Maximum-Head-Change  Column Row Layer    Maximum-Flux-Residual          L2-NORM 
          0                 1           2             4    7     1       0.1614963726E+00       4    7    1         0.8562518152E+01      0.1581703077E+02
          0                 2           2             5    8     1       0.2397496974E-01       5    8    1         0.1342786188E+01      0.1925341880E+01
          0                 3           2             5    8     1       0.6293532557E-02       5    8    1         0.3458493967E+00      0.3891739273E+00
          0                 4           1             5    8     1       0.1652104922E-02       5    8    1         0.9120404351E-01      0.1005119433E+00
          0                 5           1             5    8     1       0.4336935519E-03       5    8    1         0.2392507136E-01      0.2644597935E-01
          0                 6           1             5    8     1       0.1138494224E-03       5    8    1         0.6281238830E-02      0.6968899468E-02
          0                 7           1             5    8     1       0.2988691795E-04       5    8    1         0.1648870968E-02      0.1836437419E-02

    ------------------------------------------------
       NWT REQUIRED            7 OUTER ITERATIONS 
       AND A TOTAL OF         10 INNER ITERATIONS.
    ------------------------------------------------

 NO OUTPUT CONTROL FOR STRESS PERIOD   22   TIME STEP   18
 
 SOLVING FOR HEAD 
                                                   Max.-Head-Change                         Max.-Flux-Residual
  Residual-Control   Outer-Iter.   Inner-Iter.     Column Row Layer    Maximum-Head-Change  Column Row Layer    Maximum-Flux-Residual          L2-NORM 
          0                 1           2             4    7     1       0.1573287014E+00       4    7    1         0.8335946946E+01      0.1547194880E+02
          0                 2           2             4    7     1       0.3627245027E-01       4    7    1         0.1995067937E+01      0.2943185136E+01
          0                 3           2             5    6     1       0.6766332794E-02       5    6    1         0.3723988414E+00      0.4461118687E+00
          0                 4           2             5    6     1       0.1776422453E-02       5    6    1         0.9803406788E-01      0.9942166167E-01
          0                 5           2             5    6     1       0.4663793629E-03       5    6    1         0.2572764090E-01      0.2573703215E-01
          0                 6           2             5    6     1       0.1224425916E-03       5    6    1         0.6754860366E-02      0.6754928340E-02
          0                 7           1             5    6     1       0.3214590989E-04       5    6    1         0.1773400755E-02      0.1773420198E-02

    ------------------------------------------------
       NWT REQUIRED            7 OUTER ITERATIONS 
       AND A TOTAL OF         13 INNER ITERATIONS.
    ------------------------------------------------

 NO OUTPUT CONTROL FOR STRESS PERIOD   22   TIME STEP   19
 
 SOLVING FOR HEAD 
                                                   Max.-Head-Change                         Max.-Flux-Residual
  Residual-Control   Outer-Iter.   Inner-Iter.     Column Row Layer    Maximum-Head-Change  Column Row Layer    Maximum-Flux-Residual          L2-NORM 
          0                 1           2             4    7     1       0.1520553058E+00       4    7    1         0.8047984608E+01      0.1508861219E+02
          0                 2           2             5    6     1       0.2263217266E-01       5    6    1         0.1263639867E+01      0.1785478836E+01
          0                 3           2             5    6     1      -0.2200428255E-02       5    6    1        -0.1258880737E+00      0.1766399393E+00
          0                 4           2             4    8     1      -0.4538038906E-03       4    8    1        -0.2526645912E-01      0.2698997425E-01
          0                 5           2             4    8     1      -0.1309553159E-03       4    8    1        -0.7304785437E-02      0.7313634368E-02
          0                 6           1             4    8     1      -0.3778921654E-04       4    8    1        -0.2107716450E-02      0.2107739759E-02

    ------------------------------------------------
       NWT REQUIRED            6 OUTER ITERATIONS 
       AND A TOTAL OF         11 INNER ITERATIONS.
    ------------------------------------------------

 NO OUTPUT CONTROL FOR STRESS PERIOD   22   TIME STEP   20
 
 SOLVING FOR HEAD 
                                                   Max.-Head-Change                         Max.-Flux-Residual
  Residual-Control   Outer-Iter.   Inner-Iter.     Column Row Layer    Maximum-Head-Change  Column Row Layer    Maximum-Flux-Residual          L2-NORM 
          0                 1           2             4    7     1       0.1505395376E+00       4    7    1         0.7903693734E+01      0.1638389170E+02
          0                 2           2             4    8     1       0.3277518775E-01       4    8    1         0.1793969967E+01      0.2389910541E+01
          0                 3           2             4    8     1       0.8806598643E-02       4    8    1         0.4766440194E+00      0.5275272598E+00
          0                 4           2             4    8     1       0.2366307352E-02       4    8    1         0.1284085583E+00      0.1394800382E+00
          0                 5           2             4    8     1       0.6358164743E-03       4    8    1         0.3448933868E-01      0.3731988790E-01
          0                 6           2             4    8     1       0.1708402614E-03       4    8    1         0.9267675987E-02      0.9995687176E-02
          0                 7           1             4    8     1       0.4590357084E-04       4    8    1         0.2490149596E-02      0.2677391044E-02

    ------------------------------------------------
       NWT REQUIRED            7 OUTER ITERATIONS 
       AND A TOTAL OF         13 INNER ITERATIONS.
    ------------------------------------------------

 NO OUTPUT CONTROL FOR STRESS PERIOD   22   TIME STEP   21
 
 SOLVING FOR HEAD 
                                                   Max.-Head-Change                         Max.-Flux-Residual
  Residual-Control   Outer-Iter.   Inner-Iter.     Column Row Layer    Maximum-Head-Change  Column Row Layer    Maximum-Flux-Residual          L2-NORM 
          0                 1           2             4    7     1       0.1500933974E+00       4    7    1         0.7888253281E+01      0.1605968523E+02
          0                 2           2             5    7     1       0.3158523036E-01       5    7    1         0.1771241024E+01      0.2257759509E+01
          0                 3           2             5    7     1       0.2605307083E-02       5    7    1         0.1418896213E+00      0.1754749135E+00
          0                 4           2             5    7     1      -0.2532928654E-03       5    7    1        -0.1430261550E-01      0.1504636712E-01
          0                 5           1             5    7     1       0.1723585337E-04       5    7    1         0.1005258019E-02      0.1012337056E-02

    ------------------------------------------------
       NWT REQUIRED            5 OUTER ITERATIONS 
       AND A TOTAL OF          9 INNER ITERATIONS.
    ------------------------------------------------

 NO OUTPUT CONTROL FOR STRESS PERIOD   22   TIME STEP   22
 
 SOLVING FOR HEAD 
                                                   Max.-Head-Change                         Max.-Flux-Residual
  Residual-Control   Outer-Iter.   Inner-Iter.     Column Row Layer    Maximum-Head-Change  Column Row Layer    Maximum-Flux-Residual          L2-NORM 
          0                 1           2             4    7     1       0.1492543843E+00       4    7    1         0.7850832845E+01      0.1575063105E+02
          0                 2           2             4    7     1       0.2662412229E-01       4    7    1         0.1452314725E+01      0.2087057137E+01
          0                 3           2             4    7     1       0.7215103179E-02       4    7    1         0.3878106024E+00      0.4754791802E+00
          0                 4           2             4    7     1       0.1955598252E-02       4    7    1         0.1054613198E+00      0.1278991740E+00
          0                 5           2             4    7     1       0.5301324251E-03       4    7    1         0.2857087087E-01      0.3477603566E-01
          0                 6           1             4    7     1       0.1437324930E-03       4    7    1         0.7745709011E-02      0.9462816178E-02
          0                 7           1             4    7     1       0.3897529635E-04       4    7    1         0.2100130057E-02      0.2575006096E-02

    ------------------------------------------------
       NWT REQUIRED            7 OUTER ITERATIONS 
       AND A TOTAL OF         12 INNER ITERATIONS.
    ------------------------------------------------

 NO OUTPUT CONTROL FOR STRESS PERIOD   22   TIME STEP   23
 
 SOLVING FOR HEAD 
                                                   Max.-Head-Change                         Max.-Flux-Residual
  Residual-Control   Outer-Iter.   Inner-Iter.     Column Row Layer    Maximum-Head-Change  Column Row Layer    Maximum-Flux-Residual          L2-NORM 
          0                 1           2             4    7     1       0.1454755534E+00       4    7    1         0.7649738601E+01      0.1543589163E+02
          0                 2           2             4    6     1       0.3056578985E-01       4    6    1         0.1662741903E+01      0.2185243727E+01
          0                 3           2             4    6     1      -0.2971668654E-02       4    6    1        -0.1659837885E+00      0.2028600374E+00
          0                 4           2             4    6     1       0.2022118817E-03       4    6    1         0.1159655575E-01      0.1343782510E-01
          0                 5           1             4    6     1      -0.8036414103E-05       4    6    1        -0.4731750278E-03      0.5328179087E-03

    ------------------------------------------------
       NWT REQUIRED            5 OUTER ITERATIONS 
       AND A TOTAL OF          9 INNER ITERATIONS.
    ------------------------------------------------

 NO OUTPUT CONTROL FOR STRESS PERIOD   22   TIME STEP   24
 
 SOLVING FOR HEAD 
                                                   Max.-Head-Change                         Max.-Flux-Residual
  Residual-Control   Outer-Iter.   Inner-Iter.     Column Row Layer    Maximum-Head-Change  Column Row Layer    Maximum-Flux-Residual          L2-NORM 
          0                 1           2             4    7     1       0.1429352169E+00       4    7    1         0.7516840658E+01      0.1513879491E+02
          0                 2           2             4    7     1      -0.1389605139E-01       4    7    1        -0.7512977270E+00      0.1496338489E+01
          0                 3           2             4    7     1       0.9451417439E-03       4    7    1         0.5255091348E-01      0.1012396112E+00
          0                 4           1             4    7     1      -0.3756093177E-04       4    7    1        -0.2146640866E-02      0.4265858933E-02

    ------------------------------------------------
       NWT REQUIRED            4 OUTER ITERATIONS 
       AND A TOTAL OF          7 INNER ITERATIONS.
    ------------------------------------------------

 NO OUTPUT CONTROL FOR STRESS PERIOD   22   TIME STEP   25
 
 SOLVING FOR HEAD 
                                                   Max.-Head-Change                         Max.-Flux-Residual
  Residual-Control   Outer-Iter.   Inner-Iter.     Column Row Layer    Maximum-Head-Change  Column Row Layer    Maximum-Flux-Residual          L2-NORM 
          0                 1           2             4    7     1       0.1411908705E+00       4    7    1         0.7426503129E+01      0.1488527849E+02
          0                 2           2             5    6     1       0.2279757135E-01       5    6    1         0.1278056156E+01      0.1944543730E+01
          0                 3           2             5    6     1       0.5985731151E-02       5    6    1         0.3287873116E+00      0.3742031705E+00
          0                 4           2             5    6     1       0.1571629528E-02       5    6    1         0.8675700484E-01      0.9570078575E-01
          0                 5           2             5    6     1       0.4126510962E-03       5    6    1         0.2276124752E-01      0.2509013043E-01
          0                 6           1             5    6     1       0.1083467773E-03       5    6    1         0.5976566249E-02      0.6588285716E-02
          0                 7           1             5    6     1       0.2844781890E-04       5    6    1         0.1569200129E-02      0.1729869106E-02

    ------------------------------------------------
       NWT REQUIRED            7 OUTER ITERATIONS 
       AND A TOTAL OF         12 INNER ITERATIONS.
    ------------------------------------------------

 NO OUTPUT CONTROL FOR STRESS PERIOD   22   TIME STEP   26
 
 SOLVING FOR HEAD 
                                                   Max.-Head-Change                         Max.-Flux-Residual
  Residual-Control   Outer-Iter.   Inner-Iter.     Column Row Layer    Maximum-Head-Change  Column Row Layer    Maximum-Flux-Residual          L2-NORM 
          0                 1           2             4    7     1       0.1394995882E+00       4    7    1         0.7337443282E+01      0.1461942835E+02
          0                 2           2             5    6     1       0.2417435621E-01       5    6    1         0.1340410113E+01      0.2384764286E+01
          0                 3           2             4    8     1       0.6179874442E-02       4    8    1         0.3301735698E+00      0.5143256742E+00
          0                 4           2             4    8     1       0.1690763988E-02       4    8    1         0.9055060164E-01      0.1264446440E+00
          0                 5           2             4    8     1       0.4624752822E-03       4    8    1         0.2476408345E-01      0.3386999496E-01
          0                 6           2             4    8     1       0.1264745633E-03       4    8    1         0.6773246162E-02      0.9218392122E-02
          0                 7           1             4    8     1       0.3458065548E-04       4    8    1         0.1852196239E-02      0.2511530882E-02

    ------------------------------------------------
       NWT REQUIRED            7 OUTER ITERATIONS 
       AND A TOTAL OF         13 INNER ITERATIONS.
    ------------------------------------------------

 NO OUTPUT CONTROL FOR STRESS PERIOD   22   TIME STEP   27
 
 SOLVING FOR HEAD 
                                                   Max.-Head-Change                         Max.-Flux-Residual
  Residual-Control   Outer-Iter.   Inner-Iter.     Column Row Layer    Maximum-Head-Change  Column Row Layer    Maximum-Flux-Residual          L2-NORM 
          0                 1           2             4    7     1       0.1385992454E+00       4    7    1         0.7293383325E+01      0.1434083901E+02
          0                 2           2             5    7     1       0.2940434481E-01       5    7    1         0.1597854128E+01      0.2792630307E+01
          0                 3           2             5    7     1       0.7855528880E-02       5    7    1         0.4286018824E+00      0.5861344705E+00
          0                 4           2             5    7     1       0.2099450172E-02       5    7    1         0.1142627136E+00      0.1544185909E+00
          0                 5           2             5    7     1       0.5613215147E-03       5    7    1         0.3056000038E-01      0.4160332569E-01
          0                 6           2             5    7     1       0.1501382415E-03       5    7    1         0.8170821686E-02      0.1121847703E-01
          0                 7           1             5    7     1       0.4017374843E-04       5    7    1         0.2185740664E-02      0.3026266675E-02

    ------------------------------------------------
       NWT REQUIRED            7 OUTER ITERATIONS 
       AND A TOTAL OF         13 INNER ITERATIONS.
    ------------------------------------------------

 NO OUTPUT CONTROL FOR STRESS PERIOD   22   TIME STEP   28
 
 SOLVING FOR HEAD 
                                                   Max.-Head-Change                         Max.-Flux-Residual
  Residual-Control   Outer-Iter.   Inner-Iter.     Column Row Layer    Maximum-Head-Change  Column Row Layer    Maximum-Flux-Residual          L2-NORM 
          0                 1           2             4    7     1       0.1358295608E+00       4    7    1         0.7148784855E+01      0.1405683239E+02
          0                 2           2             4    6     1       0.3290359281E-01       4    6    1         0.1786272525E+01      0.2271400925E+01
          0                 3           2             4    6     1       0.8778125896E-02       4    6    1         0.4797297441E+00      0.4960526218E+00
          0                 4           2             4    6     1       0.2341850240E-02       4    6    1         0.1276204750E+00      0.1278869380E+00
          0                 5           2             4    6     1       0.6247655331E-03       4    6    1         0.3407241683E-01      0.3407348338E-01
          0                 6           2             4    6     1       0.1666767422E-03       4    6    1         0.9088963101E-02      0.9089075625E-02
          0                 7           1             4    6     1       0.4446650244E-04       4    6    1         0.2424812872E-02      0.2424832850E-02

    ------------------------------------------------
       NWT REQUIRED            7 OUTER ITERATIONS 
       AND A TOTAL OF         13 INNER ITERATIONS.
    ------------------------------------------------

 NO OUTPUT CONTROL FOR STRESS PERIOD   22   TIME STEP   29
 
 SOLVING FOR HEAD 
                                                   Max.-Head-Change                         Max.-Flux-Residual
  Residual-Control   Outer-Iter.   Inner-Iter.     Column Row Layer    Maximum-Head-Change  Column Row Layer    Maximum-Flux-Residual          L2-NORM 
          0                 1           2             4    7     1       0.1334676675E+00       4    7    1         0.7027781386E+01      0.1329086239E+02
          0                 2           2             4    7     1      -0.1271811987E-01       4    7    1        -0.7024190034E+00      0.1245297866E+01
          0                 3           2             4    7     1       0.8654172081E-03       4    7    1         0.4929832417E-01      0.9182096620E-01
          0                 4           1             4    6     1       0.4758954211E-04       4    6    1         0.2794120247E-02      0.4389002308E-02

    ------------------------------------------------
       NWT REQUIRED            4 OUTER ITERATIONS 
       AND A TOTAL OF          7 INNER ITERATIONS.
    ------------------------------------------------

 NO OUTPUT CONTROL FOR STRESS PERIOD   22   TIME STEP   30



 STREAM LISTING     PERIOD     22   STEP       30

 LAYER ROW COL. STREAM  RCH.  FLOW INTO     FLOW TO   FLOW OUT OF   OVRLND.     DIRECT     STREAM       STREAM     STREAM     STREAM   STREAMBED  STREAMBED
                SEG.NO.  NO.  STRM. RCH.    AQUIFER    STRM. RCH.    RUNOFF     PRECIP       ET          HEAD       DEPTH      WIDTH   CONDCTNC.   GRADIENT

   1    1    1     1     1    2.4431E+01  2.4251E-01   2.4189E+01  0.000E+00  0.000E+00  0.000E+00  1.09422E+03  1.170E+00  1.292E+01  5.816E-02  1.390E+00
   1    2    2     1     2    2.4189E+01  3.7499E-01   2.3814E+01  0.000E+00  0.000E+00  0.000E+00  1.08922E+03  1.165E+00  1.286E+01  9.003E-02  1.388E+00
   1    3    3     1     3    2.3814E+01  3.1923E-01   2.3495E+01  0.000E+00  0.000E+00  0.000E+00  1.08358E+03  1.160E+00  1.279E+01  7.674E-02  1.387E+00
   1    3    4     1     4    2.3495E+01  2.9350E-01   2.3201E+01  0.000E+00  0.000E+00  0.000E+00  1.07856E+03  1.155E+00  1.273E+01  7.064E-02  1.385E+00
   1    4    5     2     1    2.1201E+01  3.1894E-01   2.0882E+01  0.000E+00  0.000E+00  0.000E+00  1.07302E+03  1.089E+00  1.200E+01  7.800E-02  1.363E+00
   1    5    6     2     2    2.0882E+01  2.4481E-01   2.0637E+01  0.000E+00  0.000E+00  0.000E+00  1.06759E+03  1.080E+00  1.200E+01  6.000E-02  1.360E+00
   1    6    6     2     3    2.0637E+01  2.4435E-01   2.0393E+01  0.000E+00  0.000E+00  0.000E+00  1.06286E+03  1.072E+00  1.200E+01  6.000E-02  1.357E+00
   1    7    6     2     4    2.0393E+01  2.4389E-01   2.0149E+01  0.000E+00  0.000E+00  0.000E+00  1.05814E+03  1.065E+00  1.200E+01  6.000E-02  1.355E+00
   1    8    6     2     5    2.0149E+01  2.4343E-01   1.9906E+01  0.000E+00  0.000E+00  0.000E+00  1.05342E+03  1.057E+00  1.200E+01  6.000E-02  1.352E+00
   1    3    5     3     1    2.0000E+00  2.8252E-01   1.7175E+00  0.000E+00  0.000E+00  0.000E+00  1.07555E+03  1.909E+00  9.636E+00  7.227E-02  1.955E+00
   1    3    6     3     2    1.7175E+00  2.4905E-01   1.4684E+00  0.000E+00  0.000E+00  0.000E+00  1.07264E+03  1.727E+00  8.909E+00  6.682E-02  1.864E+00
   1    3    7     3     3    1.4684E+00  1.9718E-01   1.2712E+00  0.000E+00  0.000E+00  0.000E+00  1.06987E+03  1.555E+00  8.218E+00  5.547E-02  1.777E+00
   1    4    8     3     4    1.2712E+00  2.2567E-01   1.0456E+00  0.000E+00  0.000E+00  0.000E+00  1.06682E+03  1.364E+00  7.455E+00  6.709E-02  1.682E+00
   1    5    8     3     5    1.0456E+00  1.5790E-01   8.8768E-01  0.000E+00  0.000E+00  0.000E+00  1.06362E+03  1.164E+00  6.655E+00  4.991E-02  1.582E+00
   1    6    8     3     6    8.8768E-01  5.5980E-02   8.3170E-01  0.000E+00  0.000E+00  0.000E+00  1.06158E+03  1.036E+00  6.145E+00  1.844E-02  1.518E+00
   1    5   10     4     1    1.0000E+01  9.0919E-02   9.9091E+00  0.000E+00  0.000E+00  0.000E+00  1.07836E+03  6.368E-01  1.000E+01  2.500E-02  1.212E+00
   1    5    9     4     2    9.9091E+00  1.8158E-01   9.7275E+00  0.000E+00  0.000E+00  0.000E+00  1.07154E+03  6.315E-01  1.000E+01  5.000E-02  1.211E+00
   1    6    8     4     3    9.7275E+00  1.2689E-01   9.6006E+00  0.000E+00  0.000E+00  0.000E+00  1.06381E+03  6.256E-01  1.000E+01  3.500E-02  1.209E+00
   1    6    8     5     1    1.0432E+01  2.2686E-01   1.0205E+01  0.000E+00  0.000E+00  0.000E+00  1.05868E+03  6.790E-01  1.542E+01  6.166E-02  1.226E+00
   1    7    7     5     2    1.0205E+01  2.7894E-01   9.9265E+00  0.000E+00  0.000E+00  0.000E+00  1.05417E+03  6.732E-01  1.519E+01  7.594E-02  1.224E+00
   1    8    7     5     3    9.9265E+00  1.9221E-01   9.7343E+00  0.000E+00  0.000E+00  0.000E+00  1.04992E+03  6.676E-01  1.497E+01  5.241E-02  1.223E+00
   1    8    6     5     4    9.7343E+00  1.3577E-01   9.5985E+00  0.000E+00  0.000E+00  0.000E+00  1.04691E+03  6.637E-01  1.482E+01  3.706E-02  1.221E+00
   1    9    6     6     1    2.9504E+01  2.6070E-01   2.9244E+01  0.000E+00  0.000E+00  0.000E+00  1.04407E+03  1.345E+00  1.200E+01  6.000E-02  1.448E+00
   1   10    7     6     2    2.9244E+01  2.6027E-01   2.8983E+01  0.000E+00  0.000E+00  0.000E+00  1.03952E+03  1.338E+00  1.200E+01  6.000E-02  1.446E+00
   1   11    7     6     3    2.8983E+01  2.5984E-01   2.8723E+01  0.000E+00  0.000E+00  0.000E+00  1.03497E+03  1.331E+00  1.200E+01  6.000E-02  1.444E+00
   1   12    7     6     4    2.8723E+01  2.5941E-01   2.8464E+01  0.000E+00  0.000E+00  0.000E+00  1.03041E+03  1.324E+00  1.200E+01  6.000E-02  1.441E+00
   1   13    7     6     5    2.8464E+01  4.5614E-03   2.8459E+01  0.000E+00  0.000E+00  0.000E+00  1.02723E+03  1.320E+00  1.200E+01  2.400E-02  6.335E-02
   1   14    9     7     1    1.5000E+02  1.3347E+00   1.4867E+02  0.000E+00  0.000E+00  0.000E+00  1.03987E+03  2.288E+00  5.529E+01  5.593E-01  7.955E-01
   1   13    8     7     2    1.4867E+02  1.8402E+00   1.4683E+02  0.000E+00  0.000E+00  0.000E+00  1.03478E+03  2.279E+00  5.526E+01  6.148E-01  9.978E-01
   1   13    7     7     3    1.4683E+02  1.4804E+00   1.4534E+02  0.000E+00  0.000E+00  0.000E+00  1.02969E+03  2.270E+00  5.522E+01  5.584E-01  8.836E-01
   1   13    6     8     1    1.7380E+02  9.4595E-01   1.7286E+02  0.000E+00  0.000E+00  0.000E+00  1.02485E+03  2.974E+00  4.312E+01  4.394E-01  7.176E-01
   1   13    5     8     2    1.7286E+02  1.9579E-01   1.7266E+02  0.000E+00  0.000E+00  0.000E+00  1.01860E+03  2.970E+00  4.307E+01  4.389E-01  1.487E-01
   1   13    4     8     3    1.7266E+02 -2.3769E+00   1.7504E+02  0.000E+00  0.000E+00  0.000E+00  1.01235E+03  2.977E+00  4.317E+01  4.399E+00 -1.801E-01
   1   13    3     8     4    1.7504E+02 -3.6471E+00   1.7869E+02  0.000E+00  0.000E+00  0.000E+00  1.00612E+03  2.996E+00  4.345E+01  4.427E+00 -2.746E-01
   1   13    2     8     5    1.7869E+02 -2.6104E+00   1.8130E+02  0.000E+00  0.000E+00  0.000E+00  9.99891E+02  3.016E+00  4.373E+01  4.457E+00 -1.952E-01
   1   13    1     8     6    1.8130E+02 -2.0290E+00   1.8333E+02  0.000E+00  0.000E+00  0.000E+00  9.94906E+02  3.031E+00  4.394E+01  2.687E+00 -2.517E-01





UNSATURATED ZONE PACKAGE VOLUMETRIC BUDGET FOR  TIME STEP    30 STRESS PERIOD   22
  ------------------------------------------------------------------------------



     CUMULATIVE VOLUMES      L**3       RATES FOR THIS TIME STEP      L**3/T
     ------------------                 ------------------------

           IN:                                      IN:
           ---                                      ---
        INFILTRATION =   999436184.1528          INFILTRATION =          12.0675

          OUT:                                     OUT:
          ----                                     ----
              UZF ET =   854584659.0061                UZF ET =          12.0675
        UZF RECHARGE =   120644188.3943          UZF RECHARGE =          23.9661

            IN - OUT =    24207336.7524              IN - OUT =         -23.9661

          STORAGE:                                 STORAGE:
          --------                                 --------
      STORAGE CHANGE =    24207348.9678        STORAGE CHANGE =         -23.9661

 PERCENT DISCREPANCY IS DIFFERENCE BETWEEN IN-OUT MINUS CHANGE IN STORAGE
 DIVIDED BY THE AVERAGE OF IN AND OUT TIMES 100

 PERCENT DISCREPANCY =          -0.00     PERCENT DISCREPANCY =           0.00






1
  VOLUMETRIC BUDGET FOR AGRICULTURAL FIELDS AT  END OF TIME STEP   30, STRESS PERIOD  22
  ------------------------------------------------------------------------------

     CUMULATIVE VOLUMES      L**3       RATES FOR THIS TIME STEP      L**3/T
     ------------------                 ------------------------

           IN:                                      IN:
           ---                                      ---
               AG WELLS  =   952554432.0000                 AG WELLS  =          11.2200
      DIVERSION SEGMENTS =           0.0000        DIVERSION SEGMENTS =           0.0000
           GW IRRIGATION =           0.0000             GW IRRIGATION =           0.0000
           SW IRRIGATION =           0.0000             SW IRRIGATION =           0.0000
        SYSTEM LOSSES GW =           0.0000          SYSTEM LOSSES GW =           0.0000
        SYSTEM LOSSES SW =           0.0000          SYSTEM LOSSES SW =           0.0000

                TOTAL IN =   952554432.0000                  TOTAL IN =          11.2200

          OUT:                                     OUT:
          ----                                     ----
               AG WELLS  =           0.0000                 AG WELLS  =           0.0000
      DIVERSION SEGMENTS =           0.0000        DIVERSION SEGMENTS =           0.0000
           GW IRRIGATION =   952554432.0000             GW IRRIGATION =          11.2200
           SW IRRIGATION =           0.0000             SW IRRIGATION =           0.0000
        SYSTEM LOSSES GW =           0.0000          SYSTEM LOSSES GW =           0.0000
        SYSTEM LOSSES SW =           0.0000          SYSTEM LOSSES SW =           0.0000

               TOTAL OUT =   952554432.0000                 TOTAL OUT =          11.2200

                IN - OUT =           0.0000                  IN - OUT =           0.0000

     PERCENT DISCREPANCY =           0.00         PERCENT DISCREPANCY =           0.00



1
  VOLUMETRIC BUDGET FOR ENTIRE MODEL AT END OF TIME STEP   30, STRESS PERIOD  22
  ------------------------------------------------------------------------------

     CUMULATIVE VOLUMES      L**3       RATES FOR THIS TIME STEP      L**3/T
     ------------------                 ------------------------

           IN:                                      IN:
           ---                                      ---
             STORAGE     =  1130550144.0000               STORAGE     =          18.5859
       CONSTANT HEAD     =           0.0000         CONSTANT HEAD     =           0.0000
     HEAD DEP BOUNDS     =    15789581.0000       HEAD DEP BOUNDS     =           0.2857
      STREAM LEAKAGE     =   693055552.0000        STREAM LEAKAGE     =          11.7689
        UZF RECHARGE     =   120644144.0000          UZF RECHARGE     =          23.9661
               GW ET     =           0.0000                 GW ET     =           0.0000
     SURFACE LEAKAGE     =           0.0000       SURFACE LEAKAGE     =           0.0000
           AG WELLS      =           0.0000             AG WELLS      =           0.0000

                TOTAL IN =  1960039424.0000                  TOTAL IN =          54.6066

          OUT:                                     OUT:
          ----                                     ----
             STORAGE     =   401540640.0000               STORAGE     =          32.4322
       CONSTANT HEAD     =           0.0000         CONSTANT HEAD     =           0.0000
     HEAD DEP BOUNDS     =    16296798.0000       HEAD DEP BOUNDS     =           0.2911
      STREAM LEAKAGE     =   572138688.0000        STREAM LEAKAGE     =          10.6634
        UZF RECHARGE     =           0.0000          UZF RECHARGE     =           0.0000
               GW ET     =    17516202.0000                 GW ET     =           0.0000
     SURFACE LEAKAGE     =           0.0000       SURFACE LEAKAGE     =           0.0000
           AG WELLS      =   952554432.0000             AG WELLS      =          11.2200

               TOTAL OUT =  1960046848.0000                 TOTAL OUT =          54.6067

                IN - OUT =       -7424.0000                  IN - OUT =      -8.3923E-05

     PERCENT DISCREPANCY =          -0.00         PERCENT DISCREPANCY =          -0.00






         TIME SUMMARY AT END OF TIME STEP   30 IN STRESS PERIOD   22
                    SECONDS     MINUTES      HOURS       DAYS        YEARS
                    -----------------------------------------------------------
   TIME STEP LENGTH  87667.      1461.1      24.352      1.0147     2.77799E-03
 STRESS PERIOD TIME 2.63000E+06  43833.      730.56      30.440     8.33397E-02
         TOTAL TIME 5.53166E+07 9.21944E+05  15366.      640.24      1.7529    
1
1
                            STRESS PERIOD NO.   23, LENGTH =   2630000.    
                            -----------------------------------------------

                              NUMBER OF TIME STEPS =    30

                               MULTIPLIER FOR DELT =     1.000

                            INITIAL TIME STEP SIZE =   87666.66    

 REUSING NON-PARAMETER GHB CELLS FROM LAST STRESS PERIOD

      2 GHB CELLS

 REUSING STREAM SEGMENT DATA FROM LAST STRESS PERIOD



            AREAL INFILTRATION RATE
 READING ON UNIT   19 WITH FORMAT: (FREE)              

            1           2           3           4           5           6           7           8           9          10
 ........................................................................................................................
   1   1.0000E-10  2.0000E-10   0.000       0.000       0.000       0.000       0.000       0.000       0.000       0.000    
   2   2.0000E-10  1.0000E-10  2.0000E-10   0.000       0.000      8.0000E-10  8.0000E-10  5.0000E-10   0.000       0.000    
   3    0.000      5.0000E-10  1.0000E-10  1.0000E-10  8.0000E-10  8.0000E-10  5.0000E-10  5.0000E-10   0.000       0.000    
   4   8.0000E-10  5.0000E-10  1.0000E-10  1.0000E-10  1.0000E-10  1.0000E-10  1.0000E-10  1.0000E-10  2.0000E-10   0.000    
   5   8.0000E-10  5.0000E-10  1.0000E-10  1.0000E-10  1.0000E-10  1.0000E-10  1.0000E-10  1.0000E-10  1.0000E-10  1.0000E-10
   6   8.0000E-10  5.0000E-10  5.0000E-10  2.0000E-10  2.0000E-10  1.0000E-10  1.0000E-10  1.0000E-10  1.0000E-10  5.0000E-10
   7   8.0000E-10  5.0000E-10  5.0000E-10  2.0000E-10  2.0000E-10  1.0000E-10  1.0000E-10  2.0000E-10  2.0000E-10   0.000    
   8    0.000      5.0000E-10  5.0000E-10  2.0000E-10  2.0000E-10  1.0000E-10  1.0000E-10  2.0000E-10  5.0000E-10   0.000    
   9    0.000      5.0000E-10  5.0000E-10  2.0000E-10  2.0000E-10  1.0000E-10  1.0000E-10  2.0000E-10  5.0000E-10   0.000    
  10    0.000      5.0000E-10  5.0000E-10  2.0000E-10  2.0000E-10  1.0000E-10  1.0000E-10  2.0000E-10  5.0000E-10  8.0000E-10
  11    0.000      1.0000E-10  1.0000E-10  1.0000E-10  1.0000E-10  1.0000E-10  1.0000E-10  2.0000E-10  5.0000E-10   0.000    
  12   1.0000E-10  1.0000E-10  1.0000E-10  1.0000E-10  1.0000E-10  1.0000E-10  1.0000E-10  1.0000E-10  2.0000E-10   0.000    
  13   1.0000E-10  1.0000E-10  2.0000E-10  2.0000E-10  2.0000E-10  2.0000E-10  2.0000E-10  1.0000E-10  1.0000E-10   0.000    
  14    0.000      2.0000E-10  5.0000E-10  5.0000E-10  5.0000E-10  5.0000E-10  5.0000E-10  2.0000E-10  1.0000E-10   0.000    
  15    0.000       0.000      8.0000E-10  8.0000E-10  8.0000E-10  8.0000E-10   0.000       0.000       0.000       0.000    

                  ET RATE =  5.000000E-09

 USING ET EXTINCTION DEPTH FROM PREVIOUS STRESS PERIOD. CURRENT PERIOD IS:      23

 USING EXTINCTION WATER CONTENT FROM PREVIOUS STRESS PERIOD. CURRENT PERIOD IS:      23

 USING AIR ENTRY PRESSURE FROM PREVIOUS STRESS PERIOD. CURRENT PERIOD IS:      23

 USING ROOT PRESSURE HEAD FROM PREVIOUS STRESS PERIOD. CURRENT PERIOD IS:      23

 USING ROOT ACTIVITY FROM PREVIOUS STRESS PERIOD. CURRENT PERIOD IS:      23

 PROCESSING AG STRESS PERIOD DATA

 READING AG STRESS PERIOD DATA

 READING IRRIGATION WELL

 END PROCESSING AG STRESS PERIOD DATA OPTIONS
 
 SOLVING FOR HEAD 
                                                   Max.-Head-Change                         Max.-Flux-Residual
  Residual-Control   Outer-Iter.   Inner-Iter.     Column Row Layer    Maximum-Head-Change  Column Row Layer    Maximum-Flux-Residual          L2-NORM 
          0                 1           2             4    7     1       0.1677192832E+00       4    7    1         0.8818399799E+01      0.1710468558E+02
          0                 2           2             4    7     1      -0.1630612455E-01       4    7    1        -0.8813927515E+00      0.1709594990E+01
          0                 3           2             4    7     1       0.1109545357E-02       4    7    1         0.6165072185E-01      0.1195841183E+00
          0                 4           1             4    7     1      -0.4409447421E-04       4    7    1        -0.2518355081E-02      0.4885055990E-02

    ------------------------------------------------
       NWT REQUIRED            4 OUTER ITERATIONS 
       AND A TOTAL OF          7 INNER ITERATIONS.
    ------------------------------------------------

 NO OUTPUT CONTROL FOR STRESS PERIOD   23   TIME STEP    1
 
 SOLVING FOR HEAD 
                                                   Max.-Head-Change                         Max.-Flux-Residual
  Residual-Control   Outer-Iter.   Inner-Iter.     Column Row Layer    Maximum-Head-Change  Column Row Layer    Maximum-Flux-Residual          L2-NORM 
          0                 1           2             4    7     1       0.1656872146E+00       4    7    1         0.8714243347E+01      0.1680393359E+02
          0                 2           2             4    7     1      -0.1485215833E-01       4    7    1        -0.8006761479E+00      0.1644173947E+01
          0                 3           2             4    6     1       0.9470413386E-03       4    6    1         0.5403013979E-01      0.1014637381E+00
          0                 4           1             4    6     1      -0.3763770335E-04       4    6    1        -0.2212102894E-02      0.4216843390E-02

    ------------------------------------------------
       NWT REQUIRED            4 OUTER ITERATIONS 
       AND A TOTAL OF          7 INNER ITERATIONS.
    ------------------------------------------------

 NO OUTPUT CONTROL FOR STRESS PERIOD   23   TIME STEP    2
 
 SOLVING FOR HEAD 
                                                   Max.-Head-Change                         Max.-Flux-Residual
  Residual-Control   Outer-Iter.   Inner-Iter.     Column Row Layer    Maximum-Head-Change  Column Row Layer    Maximum-Flux-Residual          L2-NORM 
          0                 1           2             4    7     1       0.1636346336E+00       4    7    1         0.8608666901E+01      0.1651606185E+02
          0                 2           2             4    7     1       0.4010194233E-01       4    7    1         0.2181470154E+01      0.2665265453E+01
          0                 3           2             4    7     1       0.1081426068E-01       4    7    1         0.5843005947E+00      0.6814585562E+00
          0                 4           2             4    7     1       0.2918772682E-02       4    7    1         0.1578300467E+00      0.1840292646E+00
          0                 5           2             4    7     1       0.7884288099E-03       4    7    1         0.4259907779E-01      0.4986150591E-01
          0                 6           1             4    7     1       0.2131425454E-03       4    7    1         0.1150992338E-01      0.1353339572E-01
          0                 7           1             4    7     1       0.5766468299E-04       4    7    1         0.3112221608E-02      0.3677867630E-02

    ------------------------------------------------
       NWT REQUIRED            7 OUTER ITERATIONS 
       AND A TOTAL OF         12 INNER ITERATIONS.
    ------------------------------------------------

 NO OUTPUT CONTROL FOR STRESS PERIOD   23   TIME STEP    3
 
 SOLVING FOR HEAD 
                                                   Max.-Head-Change                         Max.-Flux-Residual
  Residual-Control   Outer-Iter.   Inner-Iter.     Column Row Layer    Maximum-Head-Change  Column Row Layer    Maximum-Flux-Residual          L2-NORM 
          0                 1           2             4    7     1       0.1588026946E+00       4    7    1         0.8350086737E+01      0.1617270379E+02
          0                 2           2             5    7     1       0.3397265490E-01       5    7    1         0.1860185212E+01      0.3460399089E+01
          0                 3           2             5    7     1       0.8987400909E-02       5    7    1         0.4937522523E+00      0.6558207501E+00
          0                 4           2             5    7     1       0.2356159753E-02       5    7    1         0.1303267955E+00      0.1715074126E+00
          0                 5           2             5    7     1       0.6177029156E-03       5    7    1         0.3409477577E-01      0.4510470110E-01
          0                 6           2             5    7     1       0.1619419080E-03       5    7    1         0.8942397352E-02      0.1192070386E-01
          0                 7           1             5    7     1       0.4245641488E-04       5    7    1         0.2344253342E-02      0.3150132609E-02

    ------------------------------------------------
       NWT REQUIRED            7 OUTER ITERATIONS 
       AND A TOTAL OF         13 INNER ITERATIONS.
    ------------------------------------------------

 NO OUTPUT CONTROL FOR STRESS PERIOD   23   TIME STEP    4
 
 SOLVING FOR HEAD 
                                                   Max.-Head-Change                         Max.-Flux-Residual
  Residual-Control   Outer-Iter.   Inner-Iter.     Column Row Layer    Maximum-Head-Change  Column Row Layer    Maximum-Flux-Residual          L2-NORM 
          0                 1           2             4    7     1       0.1586942520E+00       4    7    1         0.8355122476E+01      0.1581057213E+02
          0                 2           2             4    7     1      -0.1496776396E-01       4    7    1        -0.8350912181E+00      0.1541048121E+01
          0                 3           2             4    6     1      -0.1423562510E-02       4    6    1        -0.8136995631E-01      0.1225579121E+00
          0                 4           1             4    6     1       0.9687012918E-04       4    6    1         0.5648196597E-02      0.6798239732E-02

    ------------------------------------------------
       NWT REQUIRED            4 OUTER ITERATIONS 
       AND A TOTAL OF          7 INNER ITERATIONS.
    ------------------------------------------------

 NO OUTPUT CONTROL FOR STRESS PERIOD   23   TIME STEP    5
 
 SOLVING FOR HEAD 
                                                   Max.-Head-Change                         Max.-Flux-Residual
  Residual-Control   Outer-Iter.   Inner-Iter.     Column Row Layer    Maximum-Head-Change  Column Row Layer    Maximum-Flux-Residual          L2-NORM 
          0                 1           2             4    7     1       0.1570117148E+00       4    7    1         0.8269974999E+01      0.1554825891E+02
          0                 2           2             4    7     1      -0.1526516431E-01       4    7    1        -0.8265816580E+00      0.1554043992E+01
          0                 3           2             4    7     1       0.1038714518E-02       4    7    1         0.5781690435E-01      0.1087043251E+00
          0                 4           1             4    7     1      -0.4127967967E-04       4    7    1        -0.2361753771E-02      0.4440662669E-02

    ------------------------------------------------
       NWT REQUIRED            4 OUTER ITERATIONS 
       AND A TOTAL OF          7 INNER ITERATIONS.
    ------------------------------------------------

 NO OUTPUT CONTROL FOR STRESS PERIOD   23   TIME STEP    6
 
 SOLVING FOR HEAD 
                                                   Max.-Head-Change                         Max.-Flux-Residual
  Residual-Control   Outer-Iter.   Inner-Iter.     Column Row Layer    Maximum-Head-Change  Column Row Layer    Maximum-Flux-Residual          L2-NORM 
          0                 1           2             4    7     1       0.1548634738E+00       4    7    1         0.8157940209E+01      0.1531011490E+02
          0                 2           2             4    6     1      -0.1240846734E-01       4    6    1        -0.6947085227E+00      0.1455141682E+01
          0                 3           2             4    7     1       0.3127814069E-02       4    7    1         0.1683510677E+00      0.1913604373E+00
          0                 4           1             4    7     1       0.8365565723E-03       4    7    1         0.4561109502E-01      0.4574594804E-01
          0                 5           1             4    7     1       0.2237426465E-03       4    7    1         0.1217635165E-01      0.1217711269E-01
          0                 6           1             4    7     1       0.5984148569E-04       4    7    1         0.3256652864E-02      0.3256852557E-02

    ------------------------------------------------
       NWT REQUIRED            6 OUTER ITERATIONS 
       AND A TOTAL OF          9 INNER ITERATIONS.
    ------------------------------------------------

 NO OUTPUT CONTROL FOR STRESS PERIOD   23   TIME STEP    7
 
 SOLVING FOR HEAD 
                                                   Max.-Head-Change                         Max.-Flux-Residual
  Residual-Control   Outer-Iter.   Inner-Iter.     Column Row Layer    Maximum-Head-Change  Column Row Layer    Maximum-Flux-Residual          L2-NORM 
          0                 1           2             4    7     1       0.1502020821E+00       4    7    1         0.7964511302E+01      0.1391005234E+02
          0                 2           2             4    7     1       0.3622720096E-01       4    7    1         0.1993260296E+01      0.2296164439E+01
          0                 3           2             4    7     1      -0.3574549556E-02       4    7    1        -0.2019492368E+00      0.2177041344E+00
          0                 4           1             4    7     1       0.2432376593E-03       4    7    1         0.1408406606E-01      0.1449687242E-01
          0                 5           1             4    7     1      -0.9666993247E-05       4    7    1        -0.5736741662E-03      0.5759854927E-03

    ------------------------------------------------
       NWT REQUIRED            5 OUTER ITERATIONS 
       AND A TOTAL OF          8 INNER ITERATIONS.
    ------------------------------------------------

 NO OUTPUT CONTROL FOR STRESS PERIOD   23   TIME STEP    8
 
 SOLVING FOR HEAD 
                                                   Max.-Head-Change                         Max.-Flux-Residual
  Residual-Control   Outer-Iter.   Inner-Iter.     Column Row Layer    Maximum-Head-Change  Column Row Layer    Maximum-Flux-Residual          L2-NORM 
          0                 1           2             4    7     1       0.1433664751E+00       4    7    1         0.7674321877E+01      0.1234046255E+02
          0                 2           2             4    7     1      -0.1363050166E-01       4    7    1        -0.7670729645E+00      0.1162964222E+01
          0                 3           2             4    6     1       0.2592462269E-02       4    6    1         0.1401761530E+00      0.1548670157E+00
          0                 4           2             4    6     1       0.6915468166E-03       4    6    1         0.3776137005E-01      0.3784671741E-01
          0                 5           2             4    6     1       0.1844718298E-03       4    6    1         0.1005856766E-01      0.1005910993E-01
          0                 6           1             4    6     1       0.4920833220E-04       4    6    1         0.2683191207E-02      0.2683324331E-02

    ------------------------------------------------
       NWT REQUIRED            6 OUTER ITERATIONS 
       AND A TOTAL OF         11 INNER ITERATIONS.
    ------------------------------------------------

 NO OUTPUT CONTROL FOR STRESS PERIOD   23   TIME STEP    9
 
 SOLVING FOR HEAD 
                                                   Max.-Head-Change                         Max.-Flux-Residual
  Residual-Control   Outer-Iter.   Inner-Iter.     Column Row Layer    Maximum-Head-Change  Column Row Layer    Maximum-Flux-Residual          L2-NORM 
          0                 1           2             4    7     1       0.1396177515E+00       4    7    1         0.7468982655E+01      0.1206332871E+02
          0                 2           2             4    6     1       0.3315603497E-01       4    6    1         0.1828680018E+01      0.2089487623E+01
          0                 3           2             4    6     1       0.7840795004E-02       4    6    1         0.4261868265E+00      0.4321942542E+00
          0                 4           2             4    6     1      -0.7622974049E-03       4    6    1        -0.4269977806E-01      0.4277031141E-01
          0                 5           1             4    6     1       0.5187183741E-04       4    6    1         0.2990904059E-02      0.2991288190E-02

    ------------------------------------------------
       NWT REQUIRED            5 OUTER ITERATIONS 
       AND A TOTAL OF          9 INNER ITERATIONS.
    ------------------------------------------------

 NO OUTPUT CONTROL FOR STRESS PERIOD   23   TIME STEP   10
 
 SOLVING FOR HEAD 
                                                   Max.-Head-Change                         Max.-Flux-Residual
  Residual-Control   Outer-Iter.   Inner-Iter.     Column Row Layer    Maximum-Head-Change  Column Row Layer    Maximum-Flux-Residual          L2-NORM 
          0                 1           2             4    7     1       0.1363944959E+00       4    7    1         0.7295707528E+01      0.1065374191E+02
          0                 2           2             4    7     1      -0.1326104880E-01       4    7    1        -0.7292273026E+00      0.1064882274E+01
          0                 3           2             4    7     1       0.9023526506E-03       4    7    1         0.5100768350E-01      0.7449086539E-01
          0                 4           1             4    7     1      -0.3586118673E-04       4    7    1        -0.2083645725E-02      0.3043238704E-02

    ------------------------------------------------
       NWT REQUIRED            4 OUTER ITERATIONS 
       AND A TOTAL OF          7 INNER ITERATIONS.
    ------------------------------------------------

 NO OUTPUT CONTROL FOR STRESS PERIOD   23   TIME STEP   11
 
 SOLVING FOR HEAD 
                                                   Max.-Head-Change                         Max.-Flux-Residual
  Residual-Control   Outer-Iter.   Inner-Iter.     Column Row Layer    Maximum-Head-Change  Column Row Layer    Maximum-Flux-Residual          L2-NORM 
          0                 1           2             4    7     1       0.1325542434E+00       4    7    1         0.7086729766E+01      0.1041156335E+02
          0                 2           2             4    7     1      -0.1288765358E-01       4    7    1        -0.7083377332E+00      0.1040675216E+01
          0                 3           2             4    7     1       0.8769447532E-03       4    7    1         0.4954650388E-01      0.7279763426E-01
          0                 4           1             4    7     1      -0.3485140922E-04       4    7    1        -0.2023955748E-02      0.2974073880E-02

    ------------------------------------------------
       NWT REQUIRED            4 OUTER ITERATIONS 
       AND A TOTAL OF          7 INNER ITERATIONS.
    ------------------------------------------------

 NO OUTPUT CONTROL FOR STRESS PERIOD   23   TIME STEP   12
 
 SOLVING FOR HEAD 
                                                   Max.-Head-Change                         Max.-Flux-Residual
  Residual-Control   Outer-Iter.   Inner-Iter.     Column Row Layer    Maximum-Head-Change  Column Row Layer    Maximum-Flux-Residual          L2-NORM 
          0                 1           2             4    6     1       0.1106048176E+00       4    6    1         0.5968357567E+01      0.7846389811E+01
          0                 2           2             4    6     1      -0.1075353303E-01       4    6    1        -0.5965460704E+00      0.7842988576E+00
          0                 3           2             4    6     1       0.7317357434E-03       4    6    1         0.4172733149E-01      0.5486632245E-01
          0                 4           1             4    6     1      -0.2908097500E-04       4    6    1        -0.1704564520E-02      0.2241686633E-02

    ------------------------------------------------
       NWT REQUIRED            4 OUTER ITERATIONS 
       AND A TOTAL OF          7 INNER ITERATIONS.
    ------------------------------------------------

 NO OUTPUT CONTROL FOR STRESS PERIOD   23   TIME STEP   13
 
 SOLVING FOR HEAD 
                                                   Max.-Head-Change                         Max.-Flux-Residual
  Residual-Control   Outer-Iter.   Inner-Iter.     Column Row Layer    Maximum-Head-Change  Column Row Layer    Maximum-Flux-Residual          L2-NORM 
          0                 1           2             4    6     1       0.1065862985E+00       4    6    1         0.5746816844E+01      0.7664737347E+01
          0                 2           2             4    6     1      -0.1036281876E-01       4    6    1        -0.5744017361E+00      0.7661419676E+00
          0                 3           2             4    6     1       0.7051489748E-03       4    6    1         0.4017835800E-01      0.5359629080E-01
          0                 4           1             4    6     1      -0.2802433227E-04       4    6    1        -0.1641287163E-02      0.2189809774E-02

    ------------------------------------------------
       NWT REQUIRED            4 OUTER ITERATIONS 
       AND A TOTAL OF          7 INNER ITERATIONS.
    ------------------------------------------------

 NO OUTPUT CONTROL FOR STRESS PERIOD   23   TIME STEP   14
 
 SOLVING FOR HEAD 
                                                   Max.-Head-Change                         Max.-Flux-Residual
  Residual-Control   Outer-Iter.   Inner-Iter.     Column Row Layer    Maximum-Head-Change  Column Row Layer    Maximum-Flux-Residual          L2-NORM 
          0                 1           2             4    6     1       0.1027965461E+00       4    6    1         0.5538031449E+01      0.7495703479E+01
          0                 2           2             4    7     1      -0.4312497427E-02       4    7    1        -0.2345290228E+00      0.5179393680E+00
          0                 3           2             4    6     1      -0.6246422313E-03       4    6    1        -0.3550522691E-01      0.5008775215E-01
          0                 4           2             4    6     1      -0.1791043361E-03       4    6    1        -0.1002220545E-01      0.1012761856E-01
          0                 5           1             4    6     1      -0.5135368210E-04       4    6    1        -0.2879285880E-02      0.2879333342E-02

    ------------------------------------------------
       NWT REQUIRED            5 OUTER ITERATIONS 
       AND A TOTAL OF          9 INNER ITERATIONS.
    ------------------------------------------------

 NO OUTPUT CONTROL FOR STRESS PERIOD   23   TIME STEP   15
 
 SOLVING FOR HEAD 
                                                   Max.-Head-Change                         Max.-Flux-Residual
  Residual-Control   Outer-Iter.   Inner-Iter.     Column Row Layer    Maximum-Head-Change  Column Row Layer    Maximum-Flux-Residual          L2-NORM 
          0                 1           2             4    6     1       0.9197282452E-01       4    6    1         0.4945606010E+01      0.7058875900E+01
          0                 2           2             4    6     1      -0.8941976211E-02       4    6    1        -0.4943160273E+00      0.7055860515E+00
          0                 3           2             4    6     1       0.6084658068E-03       4    6    1         0.3457646765E-01      0.4936078257E-01
          0                 4           1             4    6     1      -0.2418185467E-04       4    6    1        -0.1412444993E-02      0.2016800044E-02

    ------------------------------------------------
       NWT REQUIRED            4 OUTER ITERATIONS 
       AND A TOTAL OF          7 INNER ITERATIONS.
    ------------------------------------------------

 NO OUTPUT CONTROL FOR STRESS PERIOD   23   TIME STEP   16
 
 SOLVING FOR HEAD 
                                                   Max.-Head-Change                         Max.-Flux-Residual
  Residual-Control   Outer-Iter.   Inner-Iter.     Column Row Layer    Maximum-Head-Change  Column Row Layer    Maximum-Flux-Residual          L2-NORM 
          0                 1           2             4    7     1       0.4474957199E-01       4    7    1         0.2376704971E+01      0.5044303573E+01
          0                 2           2             4    7     1      -0.4350625662E-02       4    7    1        -0.2375462439E+00      0.5042534238E+00
          0                 3           2             4    7     1       0.2960400398E-03       4    7    1         0.1661580485E-01      0.3528047728E-01
          0                 4           1             4    7     1      -0.1176508462E-04       4    7    1        -0.6787432353E-03      0.1441823384E-02

    ------------------------------------------------
       NWT REQUIRED            4 OUTER ITERATIONS 
       AND A TOTAL OF          7 INNER ITERATIONS.
    ------------------------------------------------

 NO OUTPUT CONTROL FOR STRESS PERIOD   23   TIME STEP   17
 
 SOLVING FOR HEAD 
                                                   Max.-Head-Change                         Max.-Flux-Residual
  Residual-Control   Outer-Iter.   Inner-Iter.     Column Row Layer    Maximum-Head-Change  Column Row Layer    Maximum-Flux-Residual          L2-NORM 
          0                 1           2             4    7     1       0.4380748288E-01       4    7    1         0.2325095773E+01      0.4967815270E+01
          0                 2           2             4    7     1      -0.4259031649E-02       4    7    1        -0.2323878539E+00      0.4966066051E+00
          0                 3           2             4    7     1       0.2898073692E-03       4    7    1         0.1625498009E-01      0.3474537686E-01
          0                 4           1             4    7     1      -0.1151738022E-04       4    7    1        -0.6640032566E-03      0.1419935490E-02

    ------------------------------------------------
       NWT REQUIRED            4 OUTER ITERATIONS 
       AND A TOTAL OF          7 INNER ITERATIONS.
    ------------------------------------------------

 NO OUTPUT CONTROL FOR STRESS PERIOD   23   TIME STEP   18
 
 SOLVING FOR HEAD 
                                                   Max.-Head-Change                         Max.-Flux-Residual
  Residual-Control   Outer-Iter.   Inner-Iter.     Column Row Layer    Maximum-Head-Change  Column Row Layer    Maximum-Flux-Residual          L2-NORM 
          0                 1           2             4    7     1       0.4291273209E-01       4    7    1         0.2276140347E+01      0.4894736355E+01
          0                 2           2             4    7     1      -0.4172040147E-02       4    7    1        -0.2274947155E+00      0.4893006162E+00
          0                 3           2             4    7     1       0.2838878892E-03       4    7    1         0.1591270973E-01      0.3423412170E-01
          0                 4           1             4    7     1      -0.1128212307E-04       4    7    1        -0.6500212492E-03      0.1399015116E-02

    ------------------------------------------------
       NWT REQUIRED            4 OUTER ITERATIONS 
       AND A TOTAL OF          7 INNER ITERATIONS.
    ------------------------------------------------

 NO OUTPUT CONTROL FOR STRESS PERIOD   23   TIME STEP   19
 
 SOLVING FOR HEAD 
                                                   Max.-Head-Change                         Max.-Flux-Residual
  Residual-Control   Outer-Iter.   Inner-Iter.     Column Row Layer    Maximum-Head-Change  Column Row Layer    Maximum-Flux-Residual          L2-NORM 
          0                 1           2             4    7     1       0.4206205429E-01       4    7    1         0.2229653931E+01      0.4824767554E+01
          0                 2           2             4    7     1      -0.4089333683E-02       4    7    1        -0.2228483613E+00      0.4823051154E+00
          0                 3           2             4    7     1       0.2782599970E-03       4    7    1         0.1558770200E-01      0.3374467219E-01
          0                 4           1             4    7     1      -0.1105845467E-04       4    7    1        -0.6367444610E-03      0.1378991430E-02

    ------------------------------------------------
       NWT REQUIRED            4 OUTER ITERATIONS 
       AND A TOTAL OF          7 INNER ITERATIONS.
    ------------------------------------------------

 NO OUTPUT CONTROL FOR STRESS PERIOD   23   TIME STEP   20
 
 SOLVING FOR HEAD 
                                                   Max.-Head-Change                         Max.-Flux-Residual
  Residual-Control   Outer-Iter.   Inner-Iter.     Column Row Layer    Maximum-Head-Change  Column Row Layer    Maximum-Flux-Residual          L2-NORM 
          0                 1           2             4    7     1       0.4125232475E-01       4    7    1         0.2185459928E+01      0.4757641575E+01
          0                 2           2             4    7     1      -0.4010608453E-02       4    7    1        -0.2184311399E+00      0.4755948448E+00
          0                 3           2             4    7     1       0.2729030185E-03       4    7    1         0.1527872212E-01      0.3327510921E-01
          0                 4           1             4    7     1      -0.1084555357E-04       4    7    1        -0.6241224380E-03      0.1359827140E-02

    ------------------------------------------------
       NWT REQUIRED            4 OUTER ITERATIONS 
       AND A TOTAL OF          7 INNER ITERATIONS.
    ------------------------------------------------

 NO OUTPUT CONTROL FOR STRESS PERIOD   23   TIME STEP   21
 
 SOLVING FOR HEAD 
                                                   Max.-Head-Change                         Max.-Flux-Residual
  Residual-Control   Outer-Iter.   Inner-Iter.     Column Row Layer    Maximum-Head-Change  Column Row Layer    Maximum-Flux-Residual          L2-NORM 
          0                 1           2             4    7     1       0.4048040438E-01       4    7    1         0.2143381726E+01      0.4693115050E+01
          0                 2           2             4    7     1      -0.3935559257E-02       4    7    1        -0.2142253988E+00      0.4691439616E+00
          0                 3           2             4    7     1       0.2677961856E-03       4    7    1         0.1498453530E-01      0.3282372188E-01
          0                 4           1             4    7     1      -0.1064259409E-04       4    7    1        -0.6121047359E-03      0.1341381732E-02

    ------------------------------------------------
       NWT REQUIRED            4 OUTER ITERATIONS 
       AND A TOTAL OF          7 INNER ITERATIONS.
    ------------------------------------------------

 NO OUTPUT CONTROL FOR STRESS PERIOD   23   TIME STEP   22
 
 SOLVING FOR HEAD 
                                                   Max.-Head-Change                         Max.-Flux-Residual
  Residual-Control   Outer-Iter.   Inner-Iter.     Column Row Layer    Maximum-Head-Change  Column Row Layer    Maximum-Flux-Residual          L2-NORM 
          0                 1           2             4    7     1       0.3974380217E-01       4    7    1         0.2103278467E+01      0.4630976031E+01
          0                 2           2             4    7     1      -0.3863943903E-02       4    7    1        -0.2102170585E+00      0.4629318092E+00
          0                 3           2             4    7     1       0.2629230175E-03       4    7    1         0.1470415668E-01      0.3238905137E-01
          0                 4           1             4    7     1      -0.1044892160E-04       4    7    1        -0.6006511230E-03      0.1323609407E-02

    ------------------------------------------------
       NWT REQUIRED            4 OUTER ITERATIONS 
       AND A TOTAL OF          7 INNER ITERATIONS.
    ------------------------------------------------

 NO OUTPUT CONTROL FOR STRESS PERIOD   23   TIME STEP   23
 
 SOLVING FOR HEAD 
                                                   Max.-Head-Change                         Max.-Flux-Residual
  Residual-Control   Outer-Iter.   Inner-Iter.     Column Row Layer    Maximum-Head-Change  Column Row Layer    Maximum-Flux-Residual          L2-NORM 
          0                 1           2             4    7     1       0.3903997523E-01       4    7    1         0.2065006398E+01      0.4571032511E+01
          0                 2           2             4    7     1      -0.3795515158E-02       4    7    1        -0.2063917507E+00      0.4569391370E+00
          0                 3           2             4    7     1       0.2582666910E-03       4    7    1         0.1443658120E-01      0.3196973823E-01
          0                 4           1             4    7     1      -0.1026386734E-04       4    7    1        -0.5897205531E-03      0.1306513100E-02

    ------------------------------------------------
       NWT REQUIRED            4 OUTER ITERATIONS 
       AND A TOTAL OF          7 INNER ITERATIONS.
    ------------------------------------------------

 NO OUTPUT CONTROL FOR STRESS PERIOD   23   TIME STEP   24
 
 SOLVING FOR HEAD 
                                                   Max.-Head-Change                         Max.-Flux-Residual
  Residual-Control   Outer-Iter.   Inner-Iter.     Column Row Layer    Maximum-Head-Change  Column Row Layer    Maximum-Flux-Residual          L2-NORM 
          0                 1           2             4    7     1       0.3836671305E-01       4    7    1         0.2028440973E+01      0.4513116049E+01
          0                 2           2             4    7     1      -0.3730058098E-02       4    7    1        -0.2027370267E+00      0.4511491455E+00
          0                 3           2             4    7     1       0.2538125799E-03       4    7    1         0.1418093803E-01      0.3156458212E-01
          0                 4           1             4    7     1      -0.1008684933E-04       4    7    1        -0.5792774189E-03      0.1289931368E-02

    ------------------------------------------------
       NWT REQUIRED            4 OUTER ITERATIONS 
       AND A TOTAL OF          7 INNER ITERATIONS.
    ------------------------------------------------

 NO OUTPUT CONTROL FOR STRESS PERIOD   23   TIME STEP   25
 
 SOLVING FOR HEAD 
                                                   Max.-Head-Change                         Max.-Flux-Residual
  Residual-Control   Outer-Iter.   Inner-Iter.     Column Row Layer    Maximum-Head-Change  Column Row Layer    Maximum-Flux-Residual          L2-NORM 
          0                 1           2             4    7     1       0.3772171749E-01       4    7    1         0.1993452979E+01      0.4457070893E+01
          0                 2           2             4    7     1      -0.3667349290E-02       4    7    1        -0.1992399711E+00      0.4455463699E+00
          0                 3           2             4    7     1       0.2495454813E-03       4    7    1         0.1393632379E-01      0.3117254512E-01
          0                 4           1             4    7     1      -0.9917264878E-05       4    7    1        -0.5692848611E-03      0.1273885687E-02

    ------------------------------------------------
       NWT REQUIRED            4 OUTER ITERATIONS 
       AND A TOTAL OF          7 INNER ITERATIONS.
    ------------------------------------------------

 NO OUTPUT CONTROL FOR STRESS PERIOD   23   TIME STEP   26
 
 SOLVING FOR HEAD 
                                                   Max.-Head-Change                         Max.-Flux-Residual
  Residual-Control   Outer-Iter.   Inner-Iter.     Column Row Layer    Maximum-Head-Change  Column Row Layer    Maximum-Flux-Residual          L2-NORM 
          0                 1           2             4    7     1       0.3710327109E-01       4    7    1         0.1959945167E+01      0.4402759157E+01
          0                 2           2             4    7     1      -0.3607221747E-02       4    7    1        -0.1958908638E+00      0.4401167174E+00
          0                 3           2             4    7     1       0.2454540309E-03       4    7    1         0.1370205849E-01      0.3079264527E-01
          0                 4           1             4    7     1      -0.9754660612E-05       4    7    1        -0.5597150591E-03      0.1258366397E-02

    ------------------------------------------------
       NWT REQUIRED            4 OUTER ITERATIONS 
       AND A TOTAL OF          7 INNER ITERATIONS.
    ------------------------------------------------

 NO OUTPUT CONTROL FOR STRESS PERIOD   23   TIME STEP   27
 
 SOLVING FOR HEAD 
                                                   Max.-Head-Change                         Max.-Flux-Residual
  Residual-Control   Outer-Iter.   Inner-Iter.     Column Row Layer    Maximum-Head-Change  Column Row Layer    Maximum-Flux-Residual          L2-NORM 
          0                 1           2             4    7     1       0.3650953515E-01       4    7    1         0.1927813886E+01      0.4350057662E+01
          0                 2           2             4    7     1      -0.3549496666E-02       4    7    1        -0.1926793444E+00      0.4348151679E+00
          0                 3           2             4    7     1       0.2415260624E-03       4    7    1         0.1347741748E-01      0.3042170201E-01
          0                 4           1             4    7     1      -0.9598553688E-05       4    7    1        -0.5505384311E-03      0.1243215260E-02

    ------------------------------------------------
       NWT REQUIRED            4 OUTER ITERATIONS 
       AND A TOTAL OF          7 INNER ITERATIONS.
    ------------------------------------------------

 NO OUTPUT CONTROL FOR STRESS PERIOD   23   TIME STEP   28
 
 SOLVING FOR HEAD 
                                                   Max.-Head-Change                         Max.-Flux-Residual
  Residual-Control   Outer-Iter.   Inner-Iter.     Column Row Layer    Maximum-Head-Change  Column Row Layer    Maximum-Flux-Residual          L2-NORM 
          0                 1           2             4    7     1       0.3593881494E-01       4    7    1         0.1896963803E+01      0.4298892240E+01
          0                 2           2             4    7     1      -0.3494008668E-02       4    7    1        -0.1895958841E+00      0.4296777326E+00
          0                 3           2             4    7     1       0.2377503214E-03       4    7    1         0.1326173417E-01      0.3006219177E-01
          0                 4           1             4    7     1      -0.9448496949E-05       4    7    1        -0.5417277243E-03      0.1228489590E-02

    ------------------------------------------------
       NWT REQUIRED            4 OUTER ITERATIONS 
       AND A TOTAL OF          7 INNER ITERATIONS.
    ------------------------------------------------

 NO OUTPUT CONTROL FOR STRESS PERIOD   23   TIME STEP   29
 
 SOLVING FOR HEAD 
                                                   Max.-Head-Change                         Max.-Flux-Residual
  Residual-Control   Outer-Iter.   Inner-Iter.     Column Row Layer    Maximum-Head-Change  Column Row Layer    Maximum-Flux-Residual          L2-NORM 
          0                 1           2             4    7     1       0.3538955089E-01       4    7    1         0.1867307080E+01      0.4249192686E+01
          0                 2           2             4    7     1      -0.3440608149E-02       4    7    1        -0.1866317032E+00      0.4247648900E+00
          0                 3           2             4    7     1       0.2341166279E-03       4    7    1         0.1305439441E-01      0.2971846458E-01
          0                 4           1             4    7     1      -0.9304086183E-05       4    7    1        -0.5332578917E-03      0.1214460674E-02

    ------------------------------------------------
       NWT REQUIRED            4 OUTER ITERATIONS 
       AND A TOTAL OF          7 INNER ITERATIONS.
    ------------------------------------------------

 NO OUTPUT CONTROL FOR STRESS PERIOD   23   TIME STEP   30



 STREAM LISTING     PERIOD     23   STEP       30

 LAYER ROW COL. STREAM  RCH.  FLOW INTO     FLOW TO   FLOW OUT OF   OVRLND.     DIRECT     STREAM       STREAM     STREAM     STREAM   STREAMBED  STREAMBED
                SEG.NO.  NO.  STRM. RCH.    AQUIFER    STRM. RCH.    RUNOFF     PRECIP       ET          HEAD       DEPTH      WIDTH   CONDCTNC.   GRADIENT

   1    1    1     1     1    2.2000E+01  2.3088E-01   2.1769E+01  0.000E+00  0.000E+00  0.000E+00  1.09418E+03  1.132E+00  1.242E+01  5.588E-02  1.377E+00
   1    2    2     1     2    2.1769E+01  3.5689E-01   2.1413E+01  0.000E+00  0.000E+00  0.000E+00  1.08919E+03  1.127E+00  1.235E+01  8.648E-02  1.376E+00
   1    3    3     1     3    2.1413E+01  3.0372E-01   2.1109E+01  0.000E+00  0.000E+00  0.000E+00  1.08354E+03  1.121E+00  1.228E+01  7.369E-02  1.374E+00
   1    3    4     1     4    2.1109E+01  2.7914E-01   2.0830E+01  0.000E+00  0.000E+00  0.000E+00  1.07852E+03  1.117E+00  1.222E+01  6.781E-02  1.372E+00
   1    4    5     2     1    1.8830E+01  3.1306E-01   1.8517E+01  0.000E+00  0.000E+00  0.000E+00  1.07295E+03  1.014E+00  1.200E+01  7.800E-02  1.338E+00
   1    5    6     2     2    1.8517E+01  2.4027E-01   1.8276E+01  0.000E+00  0.000E+00  0.000E+00  1.06751E+03  1.005E+00  1.200E+01  6.000E-02  1.335E+00
   1    6    6     2     3    1.8276E+01  2.3980E-01   1.8037E+01  0.000E+00  0.000E+00  0.000E+00  1.06279E+03  9.967E-01  1.200E+01  6.000E-02  1.332E+00
   1    7    6     2     4    1.8037E+01  2.3933E-01   1.7797E+01  0.000E+00  0.000E+00  0.000E+00  1.05806E+03  9.888E-01  1.200E+01  6.000E-02  1.330E+00
   1    8    6     2     5    1.7797E+01  2.3885E-01   1.7558E+01  0.000E+00  0.000E+00  0.000E+00  1.05334E+03  9.808E-01  1.200E+01  6.000E-02  1.327E+00
   1    3    5     3     1    2.0000E+00  2.8252E-01   1.7175E+00  0.000E+00  0.000E+00  0.000E+00  1.07555E+03  1.909E+00  9.636E+00  7.227E-02  1.955E+00
   1    3    6     3     2    1.7175E+00  2.4905E-01   1.4684E+00  0.000E+00  0.000E+00  0.000E+00  1.07264E+03  1.727E+00  8.909E+00  6.682E-02  1.864E+00
   1    3    7     3     3    1.4684E+00  1.9718E-01   1.2712E+00  0.000E+00  0.000E+00  0.000E+00  1.06987E+03  1.555E+00  8.218E+00  5.547E-02  1.777E+00
   1    4    8     3     4    1.2712E+00  2.2567E-01   1.0456E+00  0.000E+00  0.000E+00  0.000E+00  1.06682E+03  1.364E+00  7.455E+00  6.709E-02  1.682E+00
   1    5    8     3     5    1.0456E+00  1.5790E-01   8.8768E-01  0.000E+00  0.000E+00  0.000E+00  1.06362E+03  1.164E+00  6.655E+00  4.991E-02  1.582E+00
   1    6    8     3     6    8.8768E-01  5.5980E-02   8.3170E-01  0.000E+00  0.000E+00  0.000E+00  1.06158E+03  1.036E+00  6.145E+00  1.844E-02  1.518E+00
   1    5   10     4     1    1.0000E+01  9.0919E-02   9.9091E+00  0.000E+00  0.000E+00  0.000E+00  1.07836E+03  6.368E-01  1.000E+01  2.500E-02  1.212E+00
   1    5    9     4     2    9.9091E+00  1.8158E-01   9.7275E+00  0.000E+00  0.000E+00  0.000E+00  1.07154E+03  6.315E-01  1.000E+01  5.000E-02  1.211E+00
   1    6    8     4     3    9.7275E+00  1.2689E-01   9.6006E+00  0.000E+00  0.000E+00  0.000E+00  1.06381E+03  6.256E-01  1.000E+01  3.500E-02  1.209E+00
   1    6    8     5     1    1.0432E+01  2.2686E-01   1.0205E+01  0.000E+00  0.000E+00  0.000E+00  1.05868E+03  6.790E-01  1.542E+01  6.166E-02  1.226E+00
   1    7    7     5     2    1.0205E+01  2.7894E-01   9.9265E+00  0.000E+00  0.000E+00  0.000E+00  1.05417E+03  6.732E-01  1.519E+01  7.594E-02  1.224E+00
   1    8    7     5     3    9.9265E+00  1.9221E-01   9.7343E+00  0.000E+00  0.000E+00  0.000E+00  1.04992E+03  6.676E-01  1.497E+01  5.241E-02  1.223E+00
   1    8    6     5     4    9.7343E+00  1.3577E-01   9.5985E+00  0.000E+00  0.000E+00  0.000E+00  1.04691E+03  6.637E-01  1.482E+01  3.706E-02  1.221E+00
   1    9    6     6     1    2.7157E+01  2.5677E-01   2.6900E+01  0.000E+00  0.000E+00  0.000E+00  1.04401E+03  1.280E+00  1.200E+01  6.000E-02  1.427E+00
   1   10    7     6     2    2.6900E+01  2.5634E-01   2.6644E+01  0.000E+00  0.000E+00  0.000E+00  1.03945E+03  1.272E+00  1.200E+01  6.000E-02  1.424E+00
   1   11    7     6     3    2.6644E+01  2.5590E-01   2.6388E+01  0.000E+00  0.000E+00  0.000E+00  1.03490E+03  1.265E+00  1.200E+01  6.000E-02  1.422E+00
   1   12    7     6     4    2.6388E+01  2.5546E-01   2.6132E+01  0.000E+00  0.000E+00  0.000E+00  1.03035E+03  1.258E+00  1.200E+01  6.000E-02  1.419E+00
   1   13    7     6     5    2.6132E+01  3.5964E-03   2.6129E+01  0.000E+00  0.000E+00  0.000E+00  1.02716E+03  1.254E+00  1.200E+01  2.400E-02  4.995E-02
   1   14    9     7     1    1.5000E+02  1.3357E+00   1.4866E+02  0.000E+00  0.000E+00  0.000E+00  1.03987E+03  2.288E+00  5.529E+01  5.593E-01  7.961E-01
   1   13    8     7     2    1.4866E+02  1.8457E+00   1.4682E+02  0.000E+00  0.000E+00  0.000E+00  1.03478E+03  2.279E+00  5.526E+01  6.148E-01  1.001E+00
   1   13    7     7     3    1.4682E+02  1.4947E+00   1.4532E+02  0.000E+00  0.000E+00  0.000E+00  1.02969E+03  2.270E+00  5.522E+01  5.584E-01  8.922E-01
   1   13    6     8     1    1.7145E+02  9.5465E-01   1.7050E+02  0.000E+00  0.000E+00  0.000E+00  1.02483E+03  2.959E+00  4.290E+01  4.372E-01  7.279E-01
   1   13    5     8     2    1.7050E+02  2.1047E-01   1.7029E+02  0.000E+00  0.000E+00  0.000E+00  1.01858E+03  2.955E+00  4.284E+01  4.366E-01  1.607E-01
   1   13    4     8     3    1.7029E+02 -2.3058E+00   1.7259E+02  0.000E+00  0.000E+00  0.000E+00  1.01234E+03  2.962E+00  4.294E+01  4.376E+00 -1.756E-01
   1   13    3     8     4    1.7259E+02 -3.6054E+00   1.7620E+02  0.000E+00  0.000E+00  0.000E+00  1.00611E+03  2.981E+00  4.322E+01  4.404E+00 -2.729E-01
   1   13    2     8     5    1.7620E+02 -2.5792E+00   1.7878E+02  0.000E+00  0.000E+00  0.000E+00  9.99875E+02  3.000E+00  4.350E+01  4.433E+00 -1.939E-01
   1   13    1     8     6    1.7878E+02 -1.9988E+00   1.8078E+02  0.000E+00  0.000E+00  0.000E+00  9.94890E+02  3.015E+00  4.371E+01  2.673E+00 -2.493E-01





UNSATURATED ZONE PACKAGE VOLUMETRIC BUDGET FOR  TIME STEP    30 STRESS PERIOD   23
  ------------------------------------------------------------------------------



     CUMULATIVE VOLUMES      L**3       RATES FOR THIS TIME STEP      L**3/T
     ------------------                 ------------------------

           IN:                                      IN:
           ---                                      ---
        INFILTRATION =  1001665109.0255          INFILTRATION =           0.8475

          OUT:                                     OUT:
          ----                                     ----
              UZF ET =   856813583.8788                UZF ET =           0.8475
        UZF RECHARGE =   144776212.3219          UZF RECHARGE =           0.0004

            IN - OUT =       75312.8248              IN - OUT =      -4.0646E-04

          STORAGE:                                 STORAGE:
          --------                                 --------
      STORAGE CHANGE =       75325.0733        STORAGE CHANGE =      -4.0646E-04

 PERCENT DISCREPANCY IS DIFFERENCE BETWEEN IN-OUT MINUS CHANGE IN STORAGE
 DIVIDED BY THE AVERAGE OF IN AND OUT TIMES 100

 PERCENT DISCREPANCY =          -0.00     PERCENT DISCREPANCY =           0.00






1
  VOLUMETRIC BUDGET FOR AGRICULTURAL FIELDS AT  END OF TIME STEP   30, STRESS PERIOD  23
  ------------------------------------------------------------------------------

     CUMULATIVE VOLUMES      L**3       RATES FOR THIS TIME STEP      L**3/T
     ------------------                 ------------------------

           IN:                                      IN:
           ---                                      ---
               AG WELLS  =   952554432.0000                 AG WELLS  =           0.0000
      DIVERSION SEGMENTS =           0.0000        DIVERSION SEGMENTS =           0.0000
           GW IRRIGATION =           0.0000             GW IRRIGATION =           0.0000
           SW IRRIGATION =           0.0000             SW IRRIGATION =           0.0000
        SYSTEM LOSSES GW =           0.0000          SYSTEM LOSSES GW =           0.0000
        SYSTEM LOSSES SW =           0.0000          SYSTEM LOSSES SW =           0.0000

                TOTAL IN =   952554432.0000                  TOTAL IN =           0.0000

          OUT:                                     OUT:
          ----                                     ----
               AG WELLS  =           0.0000                 AG WELLS  =           0.0000
      DIVERSION SEGMENTS =           0.0000        DIVERSION SEGMENTS =           0.0000
           GW IRRIGATION =   952554432.0000             GW IRRIGATION =           0.0000
           SW IRRIGATION =           0.0000             SW IRRIGATION =           0.0000
        SYSTEM LOSSES GW =           0.0000          SYSTEM LOSSES GW =           0.0000
        SYSTEM LOSSES SW =           0.0000          SYSTEM LOSSES SW =           0.0000

               TOTAL OUT =   952554432.0000                 TOTAL OUT =           0.0000

                IN - OUT =           0.0000                  IN - OUT =           0.0000

     PERCENT DISCREPANCY =           0.00         PERCENT DISCREPANCY =           0.00



1
  VOLUMETRIC BUDGET FOR ENTIRE MODEL AT END OF TIME STEP   30, STRESS PERIOD  23
  ------------------------------------------------------------------------------

     CUMULATIVE VOLUMES      L**3       RATES FOR THIS TIME STEP      L**3/T
     ------------------                 ------------------------

           IN:                                      IN:
           ---                                      ---
             STORAGE     =  1168953216.0000               STORAGE     =          12.0834
       CONSTANT HEAD     =           0.0000         CONSTANT HEAD     =           0.0000
     HEAD DEP BOUNDS     =    16541018.0000       HEAD DEP BOUNDS     =           0.2858
      STREAM LEAKAGE     =   723779584.0000        STREAM LEAKAGE     =          11.7127
        UZF RECHARGE     =   144776080.0000          UZF RECHARGE     =       4.0646E-04
               GW ET     =           0.0000                 GW ET     =           0.0000
     SURFACE LEAKAGE     =           0.0000       SURFACE LEAKAGE     =           0.0000
           AG WELLS      =           0.0000             AG WELLS      =           0.0000

                TOTAL IN =  2054049920.0000                  TOTAL IN =          24.0822

          OUT:                                     OUT:
          ----                                     ----
             STORAGE     =   466864896.0000               STORAGE     =          13.3028
       CONSTANT HEAD     =           0.0000         CONSTANT HEAD     =           0.0000
     HEAD DEP BOUNDS     =    17060970.0000       HEAD DEP BOUNDS     =           0.2902
      STREAM LEAKAGE     =   600060608.0000        STREAM LEAKAGE     =          10.4892
        UZF RECHARGE     =           0.0000          UZF RECHARGE     =           0.0000
               GW ET     =    17516202.0000                 GW ET     =           0.0000
     SURFACE LEAKAGE     =           0.0000       SURFACE LEAKAGE     =           0.0000
           AG WELLS      =   952554432.0000             AG WELLS      =           0.0000

               TOTAL OUT =  2054056960.0000                 TOTAL OUT =          24.0822

                IN - OUT =       -7040.0000                  IN - OUT =       9.5367E-06

     PERCENT DISCREPANCY =          -0.00         PERCENT DISCREPANCY =           0.00






         TIME SUMMARY AT END OF TIME STEP   30 IN STRESS PERIOD   23
                    SECONDS     MINUTES      HOURS       DAYS        YEARS
                    -----------------------------------------------------------
   TIME STEP LENGTH  87667.      1461.1      24.352      1.0147     2.77799E-03
 STRESS PERIOD TIME 2.63000E+06  43833.      730.56      30.440     8.33397E-02
         TOTAL TIME 5.79467E+07 9.65778E+05  16096.      670.68      1.8362    
1
1
                            STRESS PERIOD NO.   24, LENGTH =   2630000.    
                            -----------------------------------------------

                              NUMBER OF TIME STEPS =    30

                               MULTIPLIER FOR DELT =     1.000

                            INITIAL TIME STEP SIZE =   87666.66    

 REUSING NON-PARAMETER GHB CELLS FROM LAST STRESS PERIOD

      2 GHB CELLS

 REUSING STREAM SEGMENT DATA FROM LAST STRESS PERIOD



            AREAL INFILTRATION RATE
 READING ON UNIT   19 WITH FORMAT: (FREE)              

            1           2           3           4           5           6           7           8           9          10
 ........................................................................................................................
   1   1.0000E-10  2.0000E-10   0.000       0.000       0.000       0.000       0.000       0.000       0.000       0.000    
   2   2.0000E-10  1.0000E-10  2.0000E-10   0.000       0.000      8.0000E-10  8.0000E-10  5.0000E-10   0.000       0.000    
   3    0.000      5.0000E-10  1.0000E-10  1.0000E-10  8.0000E-10  8.0000E-10  5.0000E-10  5.0000E-10   0.000       0.000    
   4   8.0000E-10  5.0000E-10  1.0000E-10  1.0000E-10  1.0000E-10  1.0000E-10  1.0000E-10  1.0000E-10  2.0000E-10   0.000    
   5   8.0000E-10  5.0000E-10  1.0000E-10  1.0000E-10  1.0000E-10  1.0000E-10  1.0000E-10  1.0000E-10  1.0000E-10  1.0000E-10
   6   8.0000E-10  5.0000E-10  5.0000E-10  2.0000E-10  2.0000E-10  1.0000E-10  1.0000E-10  1.0000E-10  1.0000E-10  5.0000E-10
   7   8.0000E-10  5.0000E-10  5.0000E-10  2.0000E-10  2.0000E-10  1.0000E-10  1.0000E-10  2.0000E-10  2.0000E-10   0.000    
   8    0.000      5.0000E-10  5.0000E-10  2.0000E-10  2.0000E-10  1.0000E-10  1.0000E-10  2.0000E-10  5.0000E-10   0.000    
   9    0.000      5.0000E-10  5.0000E-10  2.0000E-10  2.0000E-10  1.0000E-10  1.0000E-10  2.0000E-10  5.0000E-10   0.000    
  10    0.000      5.0000E-10  5.0000E-10  2.0000E-10  2.0000E-10  1.0000E-10  1.0000E-10  2.0000E-10  5.0000E-10  8.0000E-10
  11    0.000      1.0000E-10  1.0000E-10  1.0000E-10  1.0000E-10  1.0000E-10  1.0000E-10  2.0000E-10  5.0000E-10   0.000    
  12   1.0000E-10  1.0000E-10  1.0000E-10  1.0000E-10  1.0000E-10  1.0000E-10  1.0000E-10  1.0000E-10  2.0000E-10   0.000    
  13   1.0000E-10  1.0000E-10  2.0000E-10  2.0000E-10  2.0000E-10  2.0000E-10  2.0000E-10  1.0000E-10  1.0000E-10   0.000    
  14    0.000      2.0000E-10  5.0000E-10  5.0000E-10  5.0000E-10  5.0000E-10  5.0000E-10  2.0000E-10  1.0000E-10   0.000    
  15    0.000       0.000      8.0000E-10  8.0000E-10  8.0000E-10  8.0000E-10   0.000       0.000       0.000       0.000    

                  ET RATE =  5.000000E-10

 USING ET EXTINCTION DEPTH FROM PREVIOUS STRESS PERIOD. CURRENT PERIOD IS:      24

 USING EXTINCTION WATER CONTENT FROM PREVIOUS STRESS PERIOD. CURRENT PERIOD IS:      24

 USING AIR ENTRY PRESSURE FROM PREVIOUS STRESS PERIOD. CURRENT PERIOD IS:      24

 USING ROOT PRESSURE HEAD FROM PREVIOUS STRESS PERIOD. CURRENT PERIOD IS:      24

 USING ROOT ACTIVITY FROM PREVIOUS STRESS PERIOD. CURRENT PERIOD IS:      24

 PROCESSING AG STRESS PERIOD DATA

 READING AG STRESS PERIOD DATA

 READING IRRIGATION WELL

 END PROCESSING AG STRESS PERIOD DATA OPTIONS
 
 SOLVING FOR HEAD 
                                                   Max.-Head-Change                         Max.-Flux-Residual
  Residual-Control   Outer-Iter.   Inner-Iter.     Column Row Layer    Maximum-Head-Change  Column Row Layer    Maximum-Flux-Residual          L2-NORM 
          0                 1           2             4    7     1       0.3486043356E-01       4    7    1         0.1838770054E+01      0.4201474973E+01
          0                 2           2             4    7     1      -0.3389165699E-02       4    7    1        -0.1837794388E+00      0.4199933368E+00
          0                 3           2             4    7     1       0.2306161759E-03       4    7    1         0.1285488320E-01      0.2938447724E-01
          0                 4           1             4    7     1      -0.9164970596E-05       4    7    1        -0.5251078535E-03      0.1200817096E-02

    ------------------------------------------------
       NWT REQUIRED            4 OUTER ITERATIONS 
       AND A TOTAL OF          7 INNER ITERATIONS.
    ------------------------------------------------

 NO OUTPUT CONTROL FOR STRESS PERIOD   24   TIME STEP    1
 
 SOLVING FOR HEAD 
                                                   Max.-Head-Change                         Max.-Flux-Residual
  Residual-Control   Outer-Iter.   Inner-Iter.     Column Row Layer    Maximum-Head-Change  Column Row Layer    Maximum-Flux-Residual          L2-NORM 
          0                 1           2             4    7     1       0.3435012907E-01       4    7    1         0.1811277639E+01      0.4155430160E+01
          0                 2           2             4    7     1      -0.3339552339E-02       4    7    1        -0.1810315859E+00      0.4153879465E+00
          0                 3           2             4    7     1       0.2272401876E-03       4    7    1         0.1266267552E-01      0.2906203825E-01
          0                 4           1             4    7     1      -0.9030801351E-05       4    7    1        -0.5172561548E-03      0.1187630509E-02

    ------------------------------------------------
       NWT REQUIRED            4 OUTER ITERATIONS 
       AND A TOTAL OF          7 INNER ITERATIONS.
    ------------------------------------------------

 NO OUTPUT CONTROL FOR STRESS PERIOD   24   TIME STEP    2
 
 SOLVING FOR HEAD 
                                                   Max.-Head-Change                         Max.-Flux-Residual
  Residual-Control   Outer-Iter.   Inner-Iter.     Column Row Layer    Maximum-Head-Change  Column Row Layer    Maximum-Flux-Residual          L2-NORM 
          0                 1           2             4    7     1       0.3385754085E-01       4    7    1         0.1784767944E+01      0.4109430119E+01
          0                 2           2             4    7     1      -0.3291661456E-02       4    7    1        -0.1783819583E+00      0.4107897474E+00
          0                 3           2             4    7     1       0.2239814099E-03       4    7    1         0.1247733867E-01      0.2874031958E-01
          0                 4           1             4    7     1      -0.8901290629E-05       4    7    1        -0.5096851587E-03      0.1174461397E-02

    ------------------------------------------------
       NWT REQUIRED            4 OUTER ITERATIONS 
       AND A TOTAL OF          7 INNER ITERATIONS.
    ------------------------------------------------

 NO OUTPUT CONTROL FOR STRESS PERIOD   24   TIME STEP    3
 
 SOLVING FOR HEAD 
                                                   Max.-Head-Change                         Max.-Flux-Residual
  Residual-Control   Outer-Iter.   Inner-Iter.     Column Row Layer    Maximum-Head-Change  Column Row Layer    Maximum-Flux-Residual          L2-NORM 
          0                 1           2             4    7     1       0.3338139615E-01       4    7    1         0.1759169502E+01      0.4064528329E+01
          0                 2           2             4    7     1      -0.3245369303E-02       4    7    1        -0.1758234124E+00      0.4063013968E+00
          0                 3           2             4    7     1       0.2208314213E-03       4    7    1         0.1229837297E-01      0.2842633888E-01
          0                 4           1             4    7     1      -0.8776103525E-05       4    7    1        -0.5023744336E-03      0.1161651415E-02

    ------------------------------------------------
       NWT REQUIRED            4 OUTER ITERATIONS 
       AND A TOTAL OF          7 INNER ITERATIONS.
    ------------------------------------------------

 NO OUTPUT CONTROL FOR STRESS PERIOD   24   TIME STEP    4
 
 SOLVING FOR HEAD 
                                                   Max.-Head-Change                         Max.-Flux-Residual
  Residual-Control   Outer-Iter.   Inner-Iter.     Column Row Layer    Maximum-Head-Change  Column Row Layer    Maximum-Flux-Residual          L2-NORM 
          0                 1           2             4    7     1       0.3292078442E-01       4    7    1         0.1734430934E+01      0.4020660023E+01
          0                 2           2             4    7     1      -0.3200587351E-02       4    7    1        -0.1733508129E+00      0.4019162993E+00
          0                 3           2             4    7     1       0.2177841983E-03       4    7    1         0.1212541920E-01      0.2811952889E-01
          0                 4           1             4    7     1      -0.8655001377E-05       4    7    1        -0.4953093216E-03      0.1149110127E-02

    ------------------------------------------------
       NWT REQUIRED            4 OUTER ITERATIONS 
       AND A TOTAL OF          7 INNER ITERATIONS.
    ------------------------------------------------

 NO OUTPUT CONTROL FOR STRESS PERIOD   24   TIME STEP    5
 
 SOLVING FOR HEAD 
                                                   Max.-Head-Change                         Max.-Flux-Residual
  Residual-Control   Outer-Iter.   Inner-Iter.     Column Row Layer    Maximum-Head-Change  Column Row Layer    Maximum-Flux-Residual          L2-NORM 
          0                 1           2             4    7     1       0.3247486594E-01       4    7    1         0.1710505032E+01      0.3977770247E+01
          0                 2           2             4    7     1      -0.3157233956E-02       4    7    1        -0.1709594412E+00      0.3976290345E+00
          0                 3           2             4    7     1       0.2148341835E-03       4    7    1         0.1195814724E-01      0.2781962857E-01
          0                 4           1             4    7     1      -0.8537761646E-05       4    7    1        -0.4884762886E-03      0.1136855465E-02

    ------------------------------------------------
       NWT REQUIRED            4 OUTER ITERATIONS 
       AND A TOTAL OF          7 INNER ITERATIONS.
    ------------------------------------------------

 NO OUTPUT CONTROL FOR STRESS PERIOD   24   TIME STEP    6
 
 SOLVING FOR HEAD 
                                                   Max.-Head-Change                         Max.-Flux-Residual
  Residual-Control   Outer-Iter.   Inner-Iter.     Column Row Layer    Maximum-Head-Change  Column Row Layer    Maximum-Flux-Residual          L2-NORM 
          0                 1           2             4    7     1       0.3204260365E-01       4    7    1         0.1687333642E+01      0.3935809585E+01
          0                 2           2             4    7     1      -0.3115208289E-02       4    7    1        -0.1686434845E+00      0.3934346139E+00
          0                 3           2             4    7     1       0.2119745170E-03       4    7    1         0.1179615054E-01      0.2752614456E-01
          0                 4           1             4    7     1      -0.8424113090E-05       4    7    1        -0.4818587715E-03      0.1124856530E-02

    ------------------------------------------------
       NWT REQUIRED            4 OUTER ITERATIONS 
       AND A TOTAL OF          7 INNER ITERATIONS.
    ------------------------------------------------

 NO OUTPUT CONTROL FOR STRESS PERIOD   24   TIME STEP    7
 
 SOLVING FOR HEAD 
                                                   Max.-Head-Change                         Max.-Flux-Residual
  Residual-Control   Outer-Iter.   Inner-Iter.     Column Row Layer    Maximum-Head-Change  Column Row Layer    Maximum-Flux-Residual          L2-NORM 
          0                 1           2             4    7     1       0.3162316634E-01       4    7    1         0.1664870302E+01      0.3894727063E+01
          0                 2           2             4    7     1      -0.3074429532E-02       4    7    1        -0.1663982988E+00      0.3893279541E+00
          0                 3           2             4    7     1       0.2091996987E-03       4    7    1         0.1163910422E-01      0.2723882989E-01
          0                 4           1             4    7     1      -0.8313836621E-05       4    7    1        -0.4754434660E-03      0.1113105497E-02

    ------------------------------------------------
       NWT REQUIRED            4 OUTER ITERATIONS 
       AND A TOTAL OF          7 INNER ITERATIONS.
    ------------------------------------------------

 NO OUTPUT CONTROL FOR STRESS PERIOD   24   TIME STEP    8
 
 SOLVING FOR HEAD 
                                                   Max.-Head-Change                         Max.-Flux-Residual
  Residual-Control   Outer-Iter.   Inner-Iter.     Column Row Layer    Maximum-Head-Change  Column Row Layer    Maximum-Flux-Residual          L2-NORM 
          0                 1           2             4    7     1       0.3121592372E-01       4    7    1         0.1643079222E+01      0.3854486208E+01
          0                 2           2             4    7     1      -0.3034836408E-02       4    7    1        -0.1642203068E+00      0.3853054038E+00
          0                 3           2             4    7     1       0.2065055593E-03       4    7    1         0.1148675805E-01      0.2695741383E-01
          0                 4           1             4    7     1      -0.8206766456E-05       4    7    1        -0.4692201826E-03      0.1101626628E-02

    ------------------------------------------------
       NWT REQUIRED            4 OUTER ITERATIONS 
       AND A TOTAL OF          7 INNER ITERATIONS.
    ------------------------------------------------

 NO OUTPUT CONTROL FOR STRESS PERIOD   24   TIME STEP    9
 
 SOLVING FOR HEAD 
                                                   Max.-Head-Change                         Max.-Flux-Residual
  Residual-Control   Outer-Iter.   Inner-Iter.     Column Row Layer    Maximum-Head-Change  Column Row Layer    Maximum-Flux-Residual          L2-NORM 
          0                 1           2             4    7     1       0.3082015773E-01       4    7    1         0.1621920417E+01      0.3815052664E+01
          0                 2           2             4    7     1      -0.2996359100E-02       4    7    1        -0.1621055118E+00      0.3813636688E+00
          0                 3           2             4    7     1       0.2038873482E-03       4    7    1         0.1133883249E-01      0.2668166976E-01
          0                 4           1             4    7     1      -0.8102714592E-05       4    7    1        -0.4631775048E-03      0.1090354823E-02

    ------------------------------------------------
       NWT REQUIRED            4 OUTER ITERATIONS 
       AND A TOTAL OF          7 INNER ITERATIONS.
    ------------------------------------------------

 NO OUTPUT CONTROL FOR STRESS PERIOD   24   TIME STEP   10
 
 SOLVING FOR HEAD 
                                                   Max.-Head-Change                         Max.-Flux-Residual
  Residual-Control   Outer-Iter.   Inner-Iter.     Column Row Layer    Maximum-Head-Change  Column Row Layer    Maximum-Flux-Residual          L2-NORM 
          0                 1           2             4    7     1       0.3043520659E-01       4    7    1         0.1601356655E+01      0.3776384684E+01
          0                 2           2             4    7     1      -0.2958933244E-02       4    7    1        -0.1600501924E+00      0.3774763487E+00
          0                 3           2             4    7     1       0.2013406845E-03       4    7    1         0.1119506720E-01      0.2640968512E-01
          0                 4           1             4    7     1      -0.8001505227E-05       4    7    1        -0.4573047338E-03      0.1079231528E-02

    ------------------------------------------------
       NWT REQUIRED            4 OUTER ITERATIONS 
       AND A TOTAL OF          7 INNER ITERATIONS.
    ------------------------------------------------

 NO OUTPUT CONTROL FOR STRESS PERIOD   24   TIME STEP   11
 
 SOLVING FOR HEAD 
                                                   Max.-Head-Change                         Max.-Flux-Residual
  Residual-Control   Outer-Iter.   Inner-Iter.     Column Row Layer    Maximum-Head-Change  Column Row Layer    Maximum-Flux-Residual          L2-NORM 
          0                 1           2             4    7     1       0.3006045887E-01       4    7    1         0.1581353625E+01      0.3738469718E+01
          0                 2           2             4    7     1      -0.2922499458E-02       4    7    1        -0.1580509190E+00      0.3737084057E+00
          0                 3           2             4    7     1       0.1988615278E-03       4    7    1         0.1105522225E-01      0.2614607388E-01
          0                 4           1             4    7     1      -0.7902979142E-05       4    7    1        -0.4515921330E-03      0.1068435098E-02

    ------------------------------------------------
       NWT REQUIRED            4 OUTER ITERATIONS 
       AND A TOTAL OF          7 INNER ITERATIONS.
    ------------------------------------------------

 NO OUTPUT CONTROL FOR STRESS PERIOD   24   TIME STEP   12
 
 SOLVING FOR HEAD 
                                                   Max.-Head-Change                         Max.-Flux-Residual
  Residual-Control   Outer-Iter.   Inner-Iter.     Column Row Layer    Maximum-Head-Change  Column Row Layer    Maximum-Flux-Residual          L2-NORM 
          0                 1           2             4    7     1       0.2969548128E-01       4    7    1         0.1561886932E+01      0.3701282950E+01
          0                 2           2             4    7     1      -0.2887015549E-02       4    7    1        -0.1561052534E+00      0.3699912207E+00
          0                 3           2             4    7     1       0.1964470079E-03       4    7    1         0.1091912716E-01      0.2588601811E-01
          0                 4           1             4    7     1      -0.7807022475E-05       4    7    1        -0.4460327330E-03      0.1057833566E-02

    ------------------------------------------------
       NWT REQUIRED            4 OUTER ITERATIONS 
       AND A TOTAL OF          7 INNER ITERATIONS.
    ------------------------------------------------

 NO OUTPUT CONTROL FOR STRESS PERIOD   24   TIME STEP   13
 
 SOLVING FOR HEAD 
                                                   Max.-Head-Change                         Max.-Flux-Residual
  Residual-Control   Outer-Iter.   Inner-Iter.     Column Row Layer    Maximum-Head-Change  Column Row Layer    Maximum-Flux-Residual          L2-NORM 
          0                 1           2             4    7     1       0.2933960624E-01       4    7    1         0.1542919493E+01      0.3664762074E+01
          0                 2           2             4    7     1      -0.2852417109E-02       4    7    1        -0.1542094889E+00      0.3663392722E+00
          0                 3           2             4    7     1       0.1940932038E-03       4    7    1         0.1078652261E-01      0.2564238641E-01
          0                 4           1             4    7     1      -0.7713478536E-05       4    7    1        -0.4406159183E-03      0.1047915169E-02

    ------------------------------------------------
       NWT REQUIRED            4 OUTER ITERATIONS 
       AND A TOTAL OF          7 INNER ITERATIONS.
    ------------------------------------------------

 NO OUTPUT CONTROL FOR STRESS PERIOD   24   TIME STEP   14
 
 SOLVING FOR HEAD 
                                                   Max.-Head-Change                         Max.-Flux-Residual
  Residual-Control   Outer-Iter.   Inner-Iter.     Column Row Layer    Maximum-Head-Change  Column Row Layer    Maximum-Flux-Residual          L2-NORM 
          0                 1           2             4    7     1       0.2899248228E-01       4    7    1         0.1524431317E+01      0.3628900574E+01
          0                 2           2             4    7     1      -0.2818663789E-02       4    7    1        -0.1523616274E+00      0.3626377381E+00
          0                 3           2             4    7     1       0.1917959815E-03       4    7    1         0.1065726881E-01      0.2537157325E-01
          0                 4           1             4    7     1      -0.7622182695E-05       4    7    1        -0.4353359507E-03      0.1036824433E-02

    ------------------------------------------------
       NWT REQUIRED            4 OUTER ITERATIONS 
       AND A TOTAL OF          7 INNER ITERATIONS.
    ------------------------------------------------

 NO OUTPUT CONTROL FOR STRESS PERIOD   24   TIME STEP   15
 
 SOLVING FOR HEAD 
                                                   Max.-Head-Change                         Max.-Flux-Residual
  Residual-Control   Outer-Iter.   Inner-Iter.     Column Row Layer    Maximum-Head-Change  Column Row Layer    Maximum-Flux-Residual          L2-NORM 
          0                 1           2             4    7     1       0.2865367056E-01       4    7    1         0.1506397121E+01      0.3593772896E+01
          0                 2           2             4    7     1      -0.2785728596E-02       4    7    1        -0.1505591417E+00      0.3592444474E+00
          0                 3           2             4    7     1       0.1895548927E-03       4    7    1         0.1053118900E-01      0.2513414166E-01
          0                 4           1             4    7     1      -0.7533118716E-05       4    7    1        -0.4301856866E-03      0.1027111955E-02

    ------------------------------------------------
       NWT REQUIRED            4 OUTER ITERATIONS 
       AND A TOTAL OF          7 INNER ITERATIONS.
    ------------------------------------------------

 NO OUTPUT CONTROL FOR STRESS PERIOD   24   TIME STEP   16
 
 SOLVING FOR HEAD 
                                                   Max.-Head-Change                         Max.-Flux-Residual
  Residual-Control   Outer-Iter.   Inner-Iter.     Column Row Layer    Maximum-Head-Change  Column Row Layer    Maximum-Flux-Residual          L2-NORM 
          0                 1           2             4    7     1       0.2832273415E-01       4    7    1         0.1488793395E+01      0.3559264058E+01
          0                 2           2             4    7     1      -0.2753554326E-02       4    7    1        -0.1487996818E+00      0.3557949236E+00
          0                 3           2             4    7     1       0.1873655813E-03       4    7    1         0.1040811880E-01      0.2489282007E-01
          0                 4           1             4    7     1      -0.7446111954E-05       4    7    1        -0.4251583532E-03      0.1017239872E-02

    ------------------------------------------------
       NWT REQUIRED            4 OUTER ITERATIONS 
       AND A TOTAL OF          7 INNER ITERATIONS.
    ------------------------------------------------

 NO OUTPUT CONTROL FOR STRESS PERIOD   24   TIME STEP   17
 
 SOLVING FOR HEAD 
                                                   Max.-Head-Change                         Max.-Flux-Residual
  Residual-Control   Outer-Iter.   Inner-Iter.     Column Row Layer    Maximum-Head-Change  Column Row Layer    Maximum-Flux-Residual          L2-NORM 
          0                 1           2             4    7     1       0.2799928373E-01       4    7    1         0.1471598242E+01      0.3525333267E+01
          0                 2           2             4    7     1      -0.2722107945E-02       4    7    1        -0.1470810592E+00      0.3524032617E+00
          0                 3           2             4    7     1       0.1852258010E-03       4    7    1         0.1028790513E-01      0.2465553954E-01
          0                 4           1             4    7     1      -0.7361073642E-05       4    7    1        -0.4202477037E-03      0.1007551665E-02

    ------------------------------------------------
       NWT REQUIRED            4 OUTER ITERATIONS 
       AND A TOTAL OF          7 INNER ITERATIONS.
    ------------------------------------------------

 NO OUTPUT CONTROL FOR STRESS PERIOD   24   TIME STEP   18
 
 SOLVING FOR HEAD 
                                                   Max.-Head-Change                         Max.-Flux-Residual
  Residual-Control   Outer-Iter.   Inner-Iter.     Column Row Layer    Maximum-Head-Change  Column Row Layer    Maximum-Flux-Residual          L2-NORM 
          0                 1           2             4    7     1       0.2768295864E-01       4    7    1         0.1454791220E+01      0.3491968680E+01
          0                 2           2             4    7     1      -0.2691354247E-02       4    7    1        -0.1454012307E+00      0.3490681098E+00
          0                 3           2             4    7     1       0.1831331552E-03       4    7    1         0.1017040506E-01      0.2442219643E-01
          0                 4           1             4    7     1      -0.7277908802E-05       4    7    1        -0.4154479045E-03      0.9980175423E-03

    ------------------------------------------------
       NWT REQUIRED            4 OUTER ITERATIONS 
       AND A TOTAL OF          7 INNER ITERATIONS.
    ------------------------------------------------

 NO OUTPUT CONTROL FOR STRESS PERIOD   24   TIME STEP   19
 
 SOLVING FOR HEAD 
                                                   Max.-Head-Change                         Max.-Flux-Residual
  Residual-Control   Outer-Iter.   Inner-Iter.     Column Row Layer    Maximum-Head-Change  Column Row Layer    Maximum-Flux-Residual          L2-NORM 
          0                 1           2             4    7     1       0.2737341249E-01       4    7    1         0.1438353637E+01      0.3459144290E+01
          0                 2           2             4    7     1      -0.2661259626E-02       4    7    1        -0.1437583279E+00      0.3457869751E+00
          0                 3           2             4    7     1       0.1810853577E-03       4    7    1         0.1005548789E-01      0.2419265082E-01
          0                 4           1             4    7     1      -0.7196526598E-05       4    7    1        -0.4107536454E-03      0.9886348863E-03

    ------------------------------------------------
       NWT REQUIRED            4 OUTER ITERATIONS 
       AND A TOTAL OF          7 INNER ITERATIONS.
    ------------------------------------------------

 NO OUTPUT CONTROL FOR STRESS PERIOD   24   TIME STEP   20
 
 SOLVING FOR HEAD 
                                                   Max.-Head-Change                         Max.-Flux-Residual
  Residual-Control   Outer-Iter.   Inner-Iter.     Column Row Layer    Maximum-Head-Change  Column Row Layer    Maximum-Flux-Residual          L2-NORM 
          0                 1           2             4    7     1       0.2707046757E-01       4    7    1         0.1422274845E+01      0.3426856905E+01
          0                 2           2             4    7     1      -0.2631806803E-02       4    7    1        -0.1421512864E+00      0.3425595202E+00
          0                 3           2             4    7     1       0.1790812316E-03       4    7    1         0.9943079189E-02      0.2396684968E-01
          0                 4           1             4    7     1      -0.7116879713E-05       4    7    1        -0.4061618288E-03      0.9794159658E-03

    ------------------------------------------------
       NWT REQUIRED            4 OUTER ITERATIONS 
       AND A TOTAL OF          7 INNER ITERATIONS.
    ------------------------------------------------

 NO OUTPUT CONTROL FOR STRESS PERIOD   24   TIME STEP   21
 
 SOLVING FOR HEAD 
                                                   Max.-Head-Change                         Max.-Flux-Residual
  Residual-Control   Outer-Iter.   Inner-Iter.     Column Row Layer    Maximum-Head-Change  Column Row Layer    Maximum-Flux-Residual          L2-NORM 
          0                 1           2             4    7     1       0.2677368656E-01       4    7    1         0.1406530999E+01      0.3395082958E+01
          0                 2           2             4    7     1      -0.2602953258E-02       4    7    1        -0.1405777229E+00      0.3393833904E+00
          0                 3           2             4    7     1       0.1771178848E-03       4    7    1         0.9833012244E-02      0.2374465278E-01
          0                 4           1             4    7     1      -0.7038853478E-05       4    7    1        -0.4016656912E-03      0.9703315633E-03

    ------------------------------------------------
       NWT REQUIRED            4 OUTER ITERATIONS 
       AND A TOTAL OF          7 INNER ITERATIONS.
    ------------------------------------------------

 NO OUTPUT CONTROL FOR STRESS PERIOD   24   TIME STEP   22
 
 SOLVING FOR HEAD 
                                                   Max.-Head-Change                         Max.-Flux-Residual
  Residual-Control   Outer-Iter.   Inner-Iter.     Column Row Layer    Maximum-Head-Change  Column Row Layer    Maximum-Flux-Residual          L2-NORM 
          0                 1           2             4    7     1       0.2648292735E-01       4    7    1         0.1391114055E+01      0.3363809124E+01
          0                 2           2             4    7     1      -0.2574685177E-02       4    7    1        -0.1390368336E+00      0.3362572288E+00
          0                 3           2             4    7     1       0.1751943760E-03       4    7    1         0.9725230775E-02      0.2352590248E-01
          0                 4           1             4    7     1      -0.6962410709E-05       4    7    1        -0.3972629077E-03      0.9613703573E-03

    ------------------------------------------------
       NWT REQUIRED            4 OUTER ITERATIONS 
       AND A TOTAL OF          7 INNER ITERATIONS.
    ------------------------------------------------

 NO OUTPUT CONTROL FOR STRESS PERIOD   24   TIME STEP   23
 
 SOLVING FOR HEAD 
                                                   Max.-Head-Change                         Max.-Flux-Residual
  Residual-Control   Outer-Iter.   Inner-Iter.     Column Row Layer    Maximum-Head-Change  Column Row Layer    Maximum-Flux-Residual          L2-NORM 
          0                 1           2             4    7     1       0.2619793050E-01       4    7    1         0.1376009331E+01      0.3333020680E+01
          0                 2           2             4    7     1      -0.2546977333E-02       4    7    1        -0.1375271506E+00      0.3331797418E+00
          0                 3           2             4    7     1       0.1733089889E-03       4    7    1         0.9619632154E-02      0.2331071450E-01
          0                 4           1             4    7     1      -0.6887482443E-05       4    7    1        -0.3929492736E-03      0.9525838034E-03

    ------------------------------------------------
       NWT REQUIRED            4 OUTER ITERATIONS 
       AND A TOTAL OF          7 INNER ITERATIONS.
    ------------------------------------------------

 NO OUTPUT CONTROL FOR STRESS PERIOD   24   TIME STEP   24
 
 SOLVING FOR HEAD 
                                                   Max.-Head-Change                         Max.-Flux-Residual
  Residual-Control   Outer-Iter.   Inner-Iter.     Column Row Layer    Maximum-Head-Change  Column Row Layer    Maximum-Flux-Residual          L2-NORM 
          0                 1           2             4    7     1       0.2591831026E-01       4    7    1         0.1361196059E+01      0.3302703053E+01
          0                 2           2             4    7     1      -0.2519792225E-02       4    7    1        -0.1360465983E+00      0.3301490904E+00
          0                 3           2             4    7     1       0.1714591725E-03       4    7    1         0.9516071201E-02      0.2309856859E-01
          0                 4           1             4    7     1      -0.6813968289E-05       4    7    1        -0.3887188986E-03      0.9439129517E-03

    ------------------------------------------------
       NWT REQUIRED            4 OUTER ITERATIONS 
       AND A TOTAL OF          7 INNER ITERATIONS.
    ------------------------------------------------

 NO OUTPUT CONTROL FOR STRESS PERIOD   24   TIME STEP   25
 
 SOLVING FOR HEAD 
                                                   Max.-Head-Change                         Max.-Flux-Residual
  Residual-Control   Outer-Iter.   Inner-Iter.     Column Row Layer    Maximum-Head-Change  Column Row Layer    Maximum-Flux-Residual          L2-NORM 
          0                 1           2             4    7     1       0.2564398471E-01       4    7    1         0.1346668870E+01      0.3272852043E+01
          0                 2           2             4    7     1      -0.2493121883E-02       4    7    1        -0.1345946401E+00      0.3271651839E+00
          0                 3           2             4    7     1       0.1696443838E-03       4    7    1         0.9414510340E-02      0.2288985307E-01
          0                 4           1             4    7     1      -0.6741846259E-05       4    7    1        -0.3845702404E-03      0.9354061767E-03

    ------------------------------------------------
       NWT REQUIRED            4 OUTER ITERATIONS 
       AND A TOTAL OF          7 INNER ITERATIONS.
    ------------------------------------------------

 NO OUTPUT CONTROL FOR STRESS PERIOD   24   TIME STEP   26
 
 SOLVING FOR HEAD 
                                                   Max.-Head-Change                         Max.-Flux-Residual
  Residual-Control   Outer-Iter.   Inner-Iter.     Column Row Layer    Maximum-Head-Change  Column Row Layer    Maximum-Flux-Residual          L2-NORM 
          0                 1           2             4    7     1       0.2537473545E-01       4    7    1         0.1332416200E+01      0.3243451075E+01
          0                 2           2             4    7     1      -0.2466945078E-02       4    7    1        -0.1331701201E+00      0.3242264739E+00
          0                 3           2             4    7     1       0.1678631782E-03       4    7    1         0.9314868747E-02      0.2268424933E-01
          0                 4           1             4    7     1      -0.6671058557E-05       4    7    1        -0.3804999590E-03      0.9270063116E-03

    ------------------------------------------------
       NWT REQUIRED            4 OUTER ITERATIONS 
       AND A TOTAL OF          7 INNER ITERATIONS.
    ------------------------------------------------

 NO OUTPUT CONTROL FOR STRESS PERIOD   24   TIME STEP   27
 
 SOLVING FOR HEAD 
                                                   Max.-Head-Change                         Max.-Flux-Residual
  Residual-Control   Outer-Iter.   Inner-Iter.     Column Row Layer    Maximum-Head-Change  Column Row Layer    Maximum-Flux-Residual          L2-NORM 
          0                 1           2             4    7     1       0.2511036286E-01       4    7    1         0.1318426728E+01      0.3214485874E+01
          0                 2           2             4    7     1      -0.2441242398E-02       4    7    1        -0.1317719066E+00      0.3213309208E+00
          0                 3           2             4    7     1       0.1661142352E-03       4    7    1         0.9217067262E-02      0.2248167587E-01
          0                 4           1             4    7     1      -0.6601553607E-05       4    7    1        -0.3765048748E-03      0.9187235062E-03

    ------------------------------------------------
       NWT REQUIRED            4 OUTER ITERATIONS 
       AND A TOTAL OF          7 INNER ITERATIONS.
    ------------------------------------------------

 NO OUTPUT CONTROL FOR STRESS PERIOD   24   TIME STEP   28
 
 SOLVING FOR HEAD 
                                                   Max.-Head-Change                         Max.-Flux-Residual
  Residual-Control   Outer-Iter.   Inner-Iter.     Column Row Layer    Maximum-Head-Change  Column Row Layer    Maximum-Flux-Residual          L2-NORM 
          0                 1           2             4    7     1       0.2485067623E-01       4    7    1         0.1304690101E+01      0.3185944817E+01
          0                 2           2             4    7     1      -0.2415995302E-02       4    7    1        -0.1303989650E+00      0.3184779772E+00
          0                 3           2             4    7     1       0.1643962931E-03       4    7    1         0.9121033500E-02      0.2228208880E-01
          0                 4           1             4    7     1      -0.6533280292E-05       4    7    1        -0.3725819893E-03      0.9105883488E-03

    ------------------------------------------------
       NWT REQUIRED            4 OUTER ITERATIONS 
       AND A TOTAL OF          7 INNER ITERATIONS.
    ------------------------------------------------

 NO OUTPUT CONTROL FOR STRESS PERIOD   24   TIME STEP   29
 
 SOLVING FOR HEAD 
                                                   Max.-Head-Change                         Max.-Flux-Residual
  Residual-Control   Outer-Iter.   Inner-Iter.     Column Row Layer    Maximum-Head-Change  Column Row Layer    Maximum-Flux-Residual          L2-NORM 
          0                 1           2             4    7     1       0.2459549763E-01       4    7    1         0.1291196432E+01      0.3157820110E+01
          0                 2           2             4    7     1      -0.2391186492E-02       4    7    1        -0.1290503070E+00      0.3156666587E+00
          0                 3           2             4    7     1       0.1627081736E-03       4    7    1         0.9026698318E-02      0.2208542685E-01
          0                 4           1             4    7     1      -0.6466192100E-05       4    7    1        -0.3687284789E-03      0.9025402867E-03

    ------------------------------------------------
       NWT REQUIRED            4 OUTER ITERATIONS 
       AND A TOTAL OF          7 INNER ITERATIONS.
    ------------------------------------------------

 NO OUTPUT CONTROL FOR STRESS PERIOD   24   TIME STEP   30



 STREAM LISTING     PERIOD     24   STEP       30

 LAYER ROW COL. STREAM  RCH.  FLOW INTO     FLOW TO   FLOW OUT OF   OVRLND.     DIRECT     STREAM       STREAM     STREAM     STREAM   STREAMBED  STREAMBED
                SEG.NO.  NO.  STRM. RCH.    AQUIFER    STRM. RCH.    RUNOFF     PRECIP       ET          HEAD       DEPTH      WIDTH   CONDCTNC.   GRADIENT

   1    1    1     1     1    2.1000E+01  2.2592E-01   2.0774E+01  0.000E+00  0.000E+00  0.000E+00  1.09416E+03  1.115E+00  1.220E+01  5.490E-02  1.372E+00
   1    2    2     1     2    2.0774E+01  3.4917E-01   2.0425E+01  0.000E+00  0.000E+00  0.000E+00  1.08917E+03  1.110E+00  1.214E+01  8.495E-02  1.370E+00
   1    3    3     1     3    2.0425E+01  2.9709E-01   2.0128E+01  0.000E+00  0.000E+00  0.000E+00  1.08352E+03  1.105E+00  1.206E+01  7.238E-02  1.368E+00
   1    3    4     1     4    2.0128E+01  2.7299E-01   1.9855E+01  0.000E+00  0.000E+00  0.000E+00  1.07851E+03  1.100E+00  1.200E+01  6.659E-02  1.367E+00
   1    4    5     2     1    1.7855E+01  3.1056E-01   1.7545E+01  0.000E+00  0.000E+00  0.000E+00  1.07292E+03  9.816E-01  1.200E+01  7.800E-02  1.327E+00
   1    5    6     2     2    1.7545E+01  2.3835E-01   1.7306E+01  0.000E+00  0.000E+00  0.000E+00  1.06748E+03  9.724E-01  1.200E+01  6.000E-02  1.324E+00
   1    6    6     2     3    1.7306E+01  2.3787E-01   1.7068E+01  0.000E+00  0.000E+00  0.000E+00  1.06276E+03  9.644E-01  1.200E+01  6.000E-02  1.321E+00
   1    7    6     2     4    1.7068E+01  2.3738E-01   1.6831E+01  0.000E+00  0.000E+00  0.000E+00  1.05803E+03  9.564E-01  1.200E+01  6.000E-02  1.319E+00
   1    8    6     2     5    1.6831E+01  2.3690E-01   1.6594E+01  0.000E+00  0.000E+00  0.000E+00  1.05331E+03  9.484E-01  1.200E+01  6.000E-02  1.316E+00
   1    3    5     3     1    2.0000E+00  2.8252E-01   1.7175E+00  0.000E+00  0.000E+00  0.000E+00  1.07555E+03  1.909E+00  9.636E+00  7.227E-02  1.955E+00
   1    3    6     3     2    1.7175E+00  2.4905E-01   1.4684E+00  0.000E+00  0.000E+00  0.000E+00  1.07264E+03  1.727E+00  8.909E+00  6.682E-02  1.864E+00
   1    3    7     3     3    1.4684E+00  1.9718E-01   1.2712E+00  0.000E+00  0.000E+00  0.000E+00  1.06987E+03  1.555E+00  8.218E+00  5.547E-02  1.777E+00
   1    4    8     3     4    1.2712E+00  2.2567E-01   1.0456E+00  0.000E+00  0.000E+00  0.000E+00  1.06682E+03  1.364E+00  7.455E+00  6.709E-02  1.682E+00
   1    5    8     3     5    1.0456E+00  1.5790E-01   8.8768E-01  0.000E+00  0.000E+00  0.000E+00  1.06362E+03  1.164E+00  6.655E+00  4.991E-02  1.582E+00
   1    6    8     3     6    8.8768E-01  5.5980E-02   8.3170E-01  0.000E+00  0.000E+00  0.000E+00  1.06158E+03  1.036E+00  6.145E+00  1.844E-02  1.518E+00
   1    5   10     4     1    1.0000E+01  9.0919E-02   9.9091E+00  0.000E+00  0.000E+00  0.000E+00  1.07836E+03  6.368E-01  1.000E+01  2.500E-02  1.212E+00
   1    5    9     4     2    9.9091E+00  1.8158E-01   9.7275E+00  0.000E+00  0.000E+00  0.000E+00  1.07154E+03  6.315E-01  1.000E+01  5.000E-02  1.211E+00
   1    6    8     4     3    9.7275E+00  1.2689E-01   9.6006E+00  0.000E+00  0.000E+00  0.000E+00  1.06381E+03  6.256E-01  1.000E+01  3.500E-02  1.209E+00
   1    6    8     5     1    1.0432E+01  2.2686E-01   1.0205E+01  0.000E+00  0.000E+00  0.000E+00  1.05868E+03  6.790E-01  1.542E+01  6.166E-02  1.226E+00
   1    7    7     5     2    1.0205E+01  2.7894E-01   9.9265E+00  0.000E+00  0.000E+00  0.000E+00  1.05417E+03  6.732E-01  1.519E+01  7.594E-02  1.224E+00
   1    8    7     5     3    9.9265E+00  1.9221E-01   9.7343E+00  0.000E+00  0.000E+00  0.000E+00  1.04992E+03  6.676E-01  1.497E+01  5.241E-02  1.223E+00
   1    8    6     5     4    9.7343E+00  1.3577E-01   9.5985E+00  0.000E+00  0.000E+00  0.000E+00  1.04691E+03  6.637E-01  1.482E+01  3.706E-02  1.221E+00
   1    9    6     6     1    2.6193E+01  2.5512E-01   2.5938E+01  0.000E+00  0.000E+00  0.000E+00  1.04398E+03  1.252E+00  1.200E+01  6.000E-02  1.417E+00
   1   10    7     6     2    2.5938E+01  2.5468E-01   2.5683E+01  0.000E+00  0.000E+00  0.000E+00  1.03943E+03  1.245E+00  1.200E+01  6.000E-02  1.415E+00
   1   11    7     6     3    2.5683E+01  2.5424E-01   2.5429E+01  0.000E+00  0.000E+00  0.000E+00  1.03487E+03  1.237E+00  1.200E+01  6.000E-02  1.412E+00
   1   12    7     6     4    2.5429E+01  2.5379E-01   2.5175E+01  0.000E+00  0.000E+00  0.000E+00  1.03032E+03  1.230E+00  1.200E+01  6.000E-02  1.410E+00
   1   13    7     6     5    2.5175E+01  3.6199E-03   2.5171E+01  0.000E+00  0.000E+00  0.000E+00  1.02714E+03  1.226E+00  1.200E+01  2.400E-02  5.028E-02
   1   14    9     7     1    1.5000E+02  1.3368E+00   1.4866E+02  0.000E+00  0.000E+00  0.000E+00  1.03987E+03  2.288E+00  5.529E+01  5.593E-01  7.967E-01
   1   13    8     7     2    1.4866E+02  1.8520E+00   1.4681E+02  0.000E+00  0.000E+00  0.000E+00  1.03478E+03  2.279E+00  5.526E+01  6.148E-01  1.004E+00
   1   13    7     7     3    1.4681E+02  1.5107E+00   1.4530E+02  0.000E+00  0.000E+00  0.000E+00  1.02969E+03  2.270E+00  5.522E+01  5.584E-01  9.017E-01
   1   13    6     8     1    1.7047E+02  9.6942E-01   1.6950E+02  0.000E+00  0.000E+00  0.000E+00  1.02483E+03  2.952E+00  4.281E+01  4.362E-01  7.408E-01
   1   13    5     8     2    1.6950E+02  2.2769E-01   1.6927E+02  0.000E+00  0.000E+00  0.000E+00  1.01857E+03  2.948E+00  4.275E+01  4.356E-01  1.742E-01
   1   13    4     8     3    1.6927E+02 -2.2425E+00   1.7152E+02  0.000E+00  0.000E+00  0.000E+00  1.01233E+03  2.955E+00  4.284E+01  4.366E+00 -1.712E-01
   1   13    3     8     4    1.7152E+02 -3.5738E+00   1.7509E+02  0.000E+00  0.000E+00  0.000E+00  1.00610E+03  2.974E+00  4.312E+01  4.394E+00 -2.711E-01
   1   13    2     8     5    1.7509E+02 -2.5679E+00   1.7766E+02  0.000E+00  0.000E+00  0.000E+00  9.99868E+02  2.993E+00  4.340E+01  4.423E+00 -1.935E-01
   1   13    1     8     6    1.7766E+02 -1.9875E+00   1.7965E+02  0.000E+00  0.000E+00  0.000E+00  9.94883E+02  3.008E+00  4.361E+01  2.666E+00 -2.484E-01





UNSATURATED ZONE PACKAGE VOLUMETRIC BUDGET FOR  TIME STEP    30 STRESS PERIOD   24
  ------------------------------------------------------------------------------



     CUMULATIVE VOLUMES      L**3       RATES FOR THIS TIME STEP      L**3/T
     ------------------                 ------------------------

           IN:                                      IN:
           ---                                      ---
        INFILTRATION =  1003894033.8983          INFILTRATION =           0.8475

          OUT:                                     OUT:
          ----                                     ----
              UZF ET =   858786083.8024                UZF ET =           0.7500
        UZF RECHARGE =   144777140.6679          UZF RECHARGE =           0.0003

            IN - OUT =      330809.4280              IN - OUT =       9.7192E-02

          STORAGE:                                 STORAGE:
          --------                                 --------
      STORAGE CHANGE =      330821.6953        STORAGE CHANGE =       9.7192E-02

 PERCENT DISCREPANCY IS DIFFERENCE BETWEEN IN-OUT MINUS CHANGE IN STORAGE
 DIVIDED BY THE AVERAGE OF IN AND OUT TIMES 100

 PERCENT DISCREPANCY =           0.00     PERCENT DISCREPANCY =           0.00






1
  VOLUMETRIC BUDGET FOR AGRICULTURAL FIELDS AT  END OF TIME STEP   30, STRESS PERIOD  24
  ------------------------------------------------------------------------------

     CUMULATIVE VOLUMES      L**3       RATES FOR THIS TIME STEP      L**3/T
     ------------------                 ------------------------

           IN:                                      IN:
           ---                                      ---
               AG WELLS  =   952554432.0000                 AG WELLS  =           0.0000
      DIVERSION SEGMENTS =           0.0000        DIVERSION SEGMENTS =           0.0000
           GW IRRIGATION =           0.0000             GW IRRIGATION =           0.0000
           SW IRRIGATION =           0.0000             SW IRRIGATION =           0.0000
        SYSTEM LOSSES GW =           0.0000          SYSTEM LOSSES GW =           0.0000
        SYSTEM LOSSES SW =           0.0000          SYSTEM LOSSES SW =           0.0000

                TOTAL IN =   952554432.0000                  TOTAL IN =           0.0000

          OUT:                                     OUT:
          ----                                     ----
               AG WELLS  =           0.0000                 AG WELLS  =           0.0000
      DIVERSION SEGMENTS =           0.0000        DIVERSION SEGMENTS =           0.0000
           GW IRRIGATION =   952554432.0000             GW IRRIGATION =           0.0000
           SW IRRIGATION =           0.0000             SW IRRIGATION =           0.0000
        SYSTEM LOSSES GW =           0.0000          SYSTEM LOSSES GW =           0.0000
        SYSTEM LOSSES SW =           0.0000          SYSTEM LOSSES SW =           0.0000

               TOTAL OUT =   952554432.0000                 TOTAL OUT =           0.0000

                IN - OUT =           0.0000                  IN - OUT =           0.0000

     PERCENT DISCREPANCY =           0.00         PERCENT DISCREPANCY =           0.00



1
  VOLUMETRIC BUDGET FOR ENTIRE MODEL AT END OF TIME STEP   30, STRESS PERIOD  24
  ------------------------------------------------------------------------------

     CUMULATIVE VOLUMES      L**3       RATES FOR THIS TIME STEP      L**3/T
     ------------------                 ------------------------

           IN:                                      IN:
           ---                                      ---
             STORAGE     =  1196443520.0000               STORAGE     =           9.1100
       CONSTANT HEAD     =           0.0000         CONSTANT HEAD     =           0.0000
     HEAD DEP BOUNDS     =    17292644.0000       HEAD DEP BOUNDS     =           0.2858
      STREAM LEAKAGE     =   754540096.0000        STREAM LEAKAGE     =          11.7258
        UZF RECHARGE     =   144777040.0000          UZF RECHARGE     =       3.0758E-04
               GW ET     =           0.0000                 GW ET     =           0.0000
     SURFACE LEAKAGE     =           0.0000       SURFACE LEAKAGE     =           0.0000
           AG WELLS      =           0.0000             AG WELLS      =           0.0000

                TOTAL IN =  2113053312.0000                  TOTAL IN =          21.1220

          OUT:                                     OUT:
          ----                                     ----
             STORAGE     =   497627360.0000               STORAGE     =          10.4605
       CONSTANT HEAD     =           0.0000         CONSTANT HEAD     =           0.0000
     HEAD DEP BOUNDS     =    17823686.0000       HEAD DEP BOUNDS     =           0.2899
      STREAM LEAKAGE     =   627538752.0000        STREAM LEAKAGE     =          10.3716
        UZF RECHARGE     =           0.0000          UZF RECHARGE     =           0.0000
               GW ET     =    17516202.0000                 GW ET     =           0.0000
     SURFACE LEAKAGE     =           0.0000       SURFACE LEAKAGE     =           0.0000
           AG WELLS      =   952554432.0000             AG WELLS      =           0.0000

               TOTAL OUT =  2113060352.0000                 TOTAL OUT =          21.1220

                IN - OUT =       -7040.0000                  IN - OUT =       5.7220E-06

     PERCENT DISCREPANCY =          -0.00         PERCENT DISCREPANCY =           0.00






         TIME SUMMARY AT END OF TIME STEP   30 IN STRESS PERIOD   24
                    SECONDS     MINUTES      HOURS       DAYS        YEARS
                    -----------------------------------------------------------
   TIME STEP LENGTH  87667.      1461.1      24.352      1.0147     2.77799E-03
 STRESS PERIOD TIME 2.63000E+06  43833.      730.56      30.440     8.33397E-02
         TOTAL TIME 6.05767E+07 1.00961E+06  16827.      701.12      1.9196    
1
1
                            STRESS PERIOD NO.   25, LENGTH =   2630000.    
                            -----------------------------------------------

                              NUMBER OF TIME STEPS =    30

                               MULTIPLIER FOR DELT =     1.000

                            INITIAL TIME STEP SIZE =   87666.66    

 REUSING NON-PARAMETER GHB CELLS FROM LAST STRESS PERIOD

      2 GHB CELLS

 REUSING STREAM SEGMENT DATA FROM LAST STRESS PERIOD



            AREAL INFILTRATION RATE
 READING ON UNIT   19 WITH FORMAT: (FREE)              

            1           2           3           4           5           6           7           8           9          10
 ........................................................................................................................
   1   1.0000E-10  2.0000E-10   0.000       0.000       0.000       0.000       0.000       0.000       0.000       0.000    
   2   2.0000E-10  1.0000E-10  2.0000E-10   0.000       0.000      8.0000E-10  8.0000E-10  5.0000E-10   0.000       0.000    
   3    0.000      5.0000E-10  1.0000E-10  1.0000E-10  8.0000E-10  8.0000E-10  5.0000E-10  5.0000E-10   0.000       0.000    
   4   8.0000E-10  5.0000E-10  1.0000E-10  1.0000E-10  1.0000E-10  1.0000E-10  1.0000E-10  1.0000E-10  2.0000E-10   0.000    
   5   8.0000E-10  5.0000E-10  1.0000E-10  1.0000E-10  1.0000E-10  1.0000E-10  1.0000E-10  1.0000E-10  1.0000E-10  1.0000E-10
   6   8.0000E-10  5.0000E-10  5.0000E-10  2.0000E-10  2.0000E-10  1.0000E-10  1.0000E-10  1.0000E-10  1.0000E-10  5.0000E-10
   7   8.0000E-10  5.0000E-10  5.0000E-10  2.0000E-10  2.0000E-10  1.0000E-10  1.0000E-10  2.0000E-10  2.0000E-10   0.000    
   8    0.000      5.0000E-10  5.0000E-10  2.0000E-10  2.0000E-10  1.0000E-10  1.0000E-10  2.0000E-10  5.0000E-10   0.000    
   9    0.000      5.0000E-10  5.0000E-10  2.0000E-10  2.0000E-10  1.0000E-10  1.0000E-10  2.0000E-10  5.0000E-10   0.000    
  10    0.000      5.0000E-10  5.0000E-10  2.0000E-10  2.0000E-10  1.0000E-10  1.0000E-10  2.0000E-10  5.0000E-10  8.0000E-10
  11    0.000      1.0000E-10  1.0000E-10  1.0000E-10  1.0000E-10  1.0000E-10  1.0000E-10  2.0000E-10  5.0000E-10   0.000    
  12   1.0000E-10  1.0000E-10  1.0000E-10  1.0000E-10  1.0000E-10  1.0000E-10  1.0000E-10  1.0000E-10  2.0000E-10   0.000    
  13   1.0000E-10  1.0000E-10  2.0000E-10  2.0000E-10  2.0000E-10  2.0000E-10  2.0000E-10  1.0000E-10  1.0000E-10   0.000    
  14    0.000      2.0000E-10  5.0000E-10  5.0000E-10  5.0000E-10  5.0000E-10  5.0000E-10  2.0000E-10  1.0000E-10   0.000    
  15    0.000       0.000      8.0000E-10  8.0000E-10  8.0000E-10  8.0000E-10   0.000       0.000       0.000       0.000    

                  ET RATE =  5.000000E-10

 USING ET EXTINCTION DEPTH FROM PREVIOUS STRESS PERIOD. CURRENT PERIOD IS:      25

 USING EXTINCTION WATER CONTENT FROM PREVIOUS STRESS PERIOD. CURRENT PERIOD IS:      25

 USING AIR ENTRY PRESSURE FROM PREVIOUS STRESS PERIOD. CURRENT PERIOD IS:      25

 USING ROOT PRESSURE HEAD FROM PREVIOUS STRESS PERIOD. CURRENT PERIOD IS:      25

 USING ROOT ACTIVITY FROM PREVIOUS STRESS PERIOD. CURRENT PERIOD IS:      25

 PROCESSING AG STRESS PERIOD DATA

 READING AG STRESS PERIOD DATA

 READING IRRIGATION WELL

 END PROCESSING AG STRESS PERIOD DATA OPTIONS
 
 SOLVING FOR HEAD 
                                                   Max.-Head-Change                         Max.-Flux-Residual
  Residual-Control   Outer-Iter.   Inner-Iter.     Column Row Layer    Maximum-Head-Change  Column Row Layer    Maximum-Flux-Residual          L2-NORM 
          0                 1           2             4    7     1       0.2434465604E-01       4    7    1         0.1277936496E+01      0.3131600807E+01
          0                 2           2             4    7     1      -0.2366799340E-02       4    7    1        -0.1277250105E+00      0.3130428663E+00
          0                 3           2             4    7     1       0.1610487470E-03       4    7    1         0.8933997247E-02      0.2190158488E-01
          0                 4           1             4    7     1      -0.6400244363E-05       4    7    1        -0.3649417411E-03      0.8950080905E-03

    ------------------------------------------------
       NWT REQUIRED            4 OUTER ITERATIONS 
       AND A TOTAL OF          7 INNER ITERATIONS.
    ------------------------------------------------

 NO OUTPUT CONTROL FOR STRESS PERIOD   25   TIME STEP    1
 
 SOLVING FOR HEAD 
                                                   Max.-Head-Change                         Max.-Flux-Residual
  Residual-Control   Outer-Iter.   Inner-Iter.     Column Row Layer    Maximum-Head-Change  Column Row Layer    Maximum-Flux-Residual          L2-NORM 
          0                 1           2             4    7     1       0.2409812938E-01       4    7    1         0.1264908744E+01      0.3104883051E+01
          0                 2           2             4    7     1      -0.2342831700E-02       4    7    1        -0.1264229208E+00      0.3103711427E+00
          0                 3           2             4    7     1       0.1594178664E-03       4    7    1         0.8842919462E-02      0.2171462316E-01
          0                 4           1             4    7     1      -0.6335431323E-05       4    7    1        -0.3612213013E-03      0.8873720034E-03

    ------------------------------------------------
       NWT REQUIRED            4 OUTER ITERATIONS 
       AND A TOTAL OF          7 INNER ITERATIONS.
    ------------------------------------------------

 NO OUTPUT CONTROL FOR STRESS PERIOD   25   TIME STEP    2
 
 SOLVING FOR HEAD 
                                                   Max.-Head-Change                         Max.-Flux-Residual
  Residual-Control   Outer-Iter.   Inner-Iter.     Column Row Layer    Maximum-Head-Change  Column Row Layer    Maximum-Flux-Residual          L2-NORM 
          0                 1           2             4    7     1       0.2385563008E-01       4    7    1         0.1252097395E+01      0.3077905808E+01
          0                 2           2             4    7     1      -0.2319255610E-02       4    7    1        -0.1251424603E+00      0.3076748916E+00
          0                 3           2             4    7     1       0.1578136285E-03       4    7    1         0.8753354581E-02      0.2152598394E-01
          0                 4           1             4    7     1      -0.6271676651E-05       4    7    1        -0.3575626511E-03      0.8796475486E-03

    ------------------------------------------------
       NWT REQUIRED            4 OUTER ITERATIONS 
       AND A TOTAL OF          7 INNER ITERATIONS.
    ------------------------------------------------

 NO OUTPUT CONTROL FOR STRESS PERIOD   25   TIME STEP    3
 
 SOLVING FOR HEAD 
                                                   Max.-Head-Change                         Max.-Flux-Residual
  Residual-Control   Outer-Iter.   Inner-Iter.     Column Row Layer    Maximum-Head-Change  Column Row Layer    Maximum-Flux-Residual          L2-NORM 
          0                 1           2             4    7     1       0.2361702171E-01       4    7    1         0.1239494856E+01      0.3051302919E+01
          0                 2           2             4    7     1      -0.2296057808E-02       4    7    1        -0.1238828703E+00      0.3050160142E+00
          0                 3           2             4    7     1       0.1562351320E-03       4    7    1         0.8665249547E-02      0.2134000562E-01
          0                 4           1             4    7     1      -0.6208945349E-05       4    7    1        -0.3539636696E-03      0.8720481767E-03

    ------------------------------------------------
       NWT REQUIRED            4 OUTER ITERATIONS 
       AND A TOTAL OF          7 INNER ITERATIONS.
    ------------------------------------------------

 NO OUTPUT CONTROL FOR STRESS PERIOD   25   TIME STEP    4
 
 SOLVING FOR HEAD 
                                                   Max.-Head-Change                         Max.-Flux-Residual
  Residual-Control   Outer-Iter.   Inner-Iter.     Column Row Layer    Maximum-Head-Change  Column Row Layer    Maximum-Flux-Residual          L2-NORM 
          0                 1           2             4    7     1       0.2338231086E-01       4    7    1         0.1227101375E+01      0.3025084936E+01
          0                 2           2             4    7     1      -0.2273238934E-02       4    7    1        -0.1226441755E+00      0.3023956203E+00
          0                 3           2             4    7     1       0.1546824198E-03       4    7    1         0.8578606101E-02      0.2115670126E-01
          0                 4           1             4    7     1      -0.6147238797E-05       4    7    1        -0.3504243714E-03      0.8645609960E-03

    ------------------------------------------------
       NWT REQUIRED            4 OUTER ITERATIONS 
       AND A TOTAL OF          7 INNER ITERATIONS.
    ------------------------------------------------

 NO OUTPUT CONTROL FOR STRESS PERIOD   25   TIME STEP    5
 
 SOLVING FOR HEAD 
                                                   Max.-Head-Change                         Max.-Flux-Residual
  Residual-Control   Outer-Iter.   Inner-Iter.     Column Row Layer    Maximum-Head-Change  Column Row Layer    Maximum-Flux-Residual          L2-NORM 
          0                 1           2             4    7     1       0.2315123459E-01       4    7    1         0.1214902652E+01      0.2999238829E+01
          0                 2           2             4    7     1      -0.2250773425E-02       4    7    1        -0.1214249466E+00      0.2998123509E+00
          0                 3           2             4    7     1       0.1531537521E-03       4    7    1         0.8493324250E-02      0.2097612866E-01
          0                 4           1             4    7     1      -0.6086487459E-05       4    7    1        -0.3469406854E-03      0.8575309384E-03

    ------------------------------------------------
       NWT REQUIRED            4 OUTER ITERATIONS 
       AND A TOTAL OF          7 INNER ITERATIONS.
    ------------------------------------------------

 NO OUTPUT CONTROL FOR STRESS PERIOD   25   TIME STEP    6
 
 SOLVING FOR HEAD 
                                                   Max.-Head-Change                         Max.-Flux-Residual
  Residual-Control   Outer-Iter.   Inner-Iter.     Column Row Layer    Maximum-Head-Change  Column Row Layer    Maximum-Flux-Residual          L2-NORM 
          0                 1           2             4    7     1       0.2292381498E-01       4    7    1         0.1202899696E+01      0.2973752155E+01
          0                 2           2             4    7     1      -0.2228663424E-02       4    7    1        -0.1202252844E+00      0.2972649760E+00
          0                 3           2             4    7     1       0.1516492755E-03       4    7    1         0.8409411065E-02      0.2079780928E-01
          0                 4           1             4    7     1      -0.6026697552E-05       4    7    1        -0.3435129147E-03      0.8498794212E-03

    ------------------------------------------------
       NWT REQUIRED            4 OUTER ITERATIONS 
       AND A TOTAL OF          7 INNER ITERATIONS.
    ------------------------------------------------

 NO OUTPUT CONTROL FOR STRESS PERIOD   25   TIME STEP    7
 
 SOLVING FOR HEAD 
                                                   Max.-Head-Change                         Max.-Flux-Residual
  Residual-Control   Outer-Iter.   Inner-Iter.     Column Row Layer    Maximum-Head-Change  Column Row Layer    Maximum-Flux-Residual          L2-NORM 
          0                 1           2             4    7     1       0.2269993591E-01       4    7    1         0.1191086331E+01      0.2948618748E+01
          0                 2           2             4    7     1      -0.2206897645E-02       4    7    1        -0.1190445717E+00      0.2947529116E+00
          0                 3           2             4    7     1       0.1501682222E-03       4    7    1         0.8326823357E-02      0.2062210676E-01
          0                 4           1             4    7     1      -0.5967838911E-05       4    7    1        -0.3401393185E-03      0.8427340708E-03

    ------------------------------------------------
       NWT REQUIRED            4 OUTER ITERATIONS 
       AND A TOTAL OF          7 INNER ITERATIONS.
    ------------------------------------------------

 NO OUTPUT CONTROL FOR STRESS PERIOD   25   TIME STEP    8
 
 SOLVING FOR HEAD 
                                                   Max.-Head-Change                         Max.-Flux-Residual
  Residual-Control   Outer-Iter.   Inner-Iter.     Column Row Layer    Maximum-Head-Change  Column Row Layer    Maximum-Flux-Residual          L2-NORM 
          0                 1           2             4    7     1       0.2247935648E-01       4    7    1         0.1179449215E+01      0.2923827468E+01
          0                 2           2             4    7     1      -0.2185452665E-02       4    7    1        -0.1178814748E+00      0.2922750565E+00
          0                 3           2             4    7     1       0.1487089974E-03       4    7    1         0.8245467842E-02      0.2044876214E-01
          0                 4           1             4    7     1      -0.5909847412E-05       4    7    1        -0.3368160171E-03      0.8356570489E-03

    ------------------------------------------------
       NWT REQUIRED            4 OUTER ITERATIONS 
       AND A TOTAL OF          7 INNER ITERATIONS.
    ------------------------------------------------

 NO OUTPUT CONTROL FOR STRESS PERIOD   25   TIME STEP    9
 
 SOLVING FOR HEAD 
                                                   Max.-Head-Change                         Max.-Flux-Residual
  Residual-Control   Outer-Iter.   Inner-Iter.     Column Row Layer    Maximum-Head-Change  Column Row Layer    Maximum-Flux-Residual          L2-NORM 
          0                 1           2             4    7     1       0.2226198315E-01       4    7    1         0.1167983178E+01      0.2899379528E+01
          0                 2           2             4    7     1      -0.2164319390E-02       4    7    1        -0.1167354771E+00      0.2898314187E+00
          0                 3           2             4    7     1       0.1472709827E-03       4    7    1         0.8165308364E-02      0.2027783873E-01
          0                 4           1             4    7     1      -0.5852699107E-05       4    7    1        -0.3335415977E-03      0.8286799228E-03

    ------------------------------------------------
       NWT REQUIRED            4 OUTER ITERATIONS 
       AND A TOTAL OF          7 INNER ITERATIONS.
    ------------------------------------------------

 NO OUTPUT CONTROL FOR STRESS PERIOD   25   TIME STEP   10
 
 SOLVING FOR HEAD 
                                                   Max.-Head-Change                         Max.-Flux-Residual
  Residual-Control   Outer-Iter.   Inner-Iter.     Column Row Layer    Maximum-Head-Change  Column Row Layer    Maximum-Flux-Residual          L2-NORM 
          0                 1           2             4    7     1       0.2204799042E-01       4    7    1         0.1156698017E+01      0.2875259578E+01
          0                 2           2             4    7     1      -0.2143514785E-02       4    7    1        -0.1156075577E+00      0.2874205849E+00
          0                 3           2             4    7     1       0.1458553324E-03       4    7    1         0.8086413419E-02      0.2010918455E-01
          0                 4           1             4    7     1      -0.5796439818E-05       4    7    1        -0.3303188334E-03      0.8217374374E-03

    ------------------------------------------------
       NWT REQUIRED            4 OUTER ITERATIONS 
       AND A TOTAL OF          7 INNER ITERATIONS.
    ------------------------------------------------

 NO OUTPUT CONTROL FOR STRESS PERIOD   25   TIME STEP   11
 
 SOLVING FOR HEAD 
                                                   Max.-Head-Change                         Max.-Flux-Residual
  Residual-Control   Outer-Iter.   Inner-Iter.     Column Row Layer    Maximum-Head-Change  Column Row Layer    Maximum-Flux-Residual          L2-NORM 
          0                 1           2             4    7     1       0.2183701363E-01       4    7    1         0.1145573487E+01      0.2851467204E+01
          0                 2           2             4    7     1      -0.2123003398E-02       4    7    1        -0.1144956932E+00      0.2850424817E+00
          0                 3           2             4    7     1       0.1444596346E-03       4    7    1         0.8008641515E-02      0.1994282789E-01
          0                 4           1             4    7     1      -0.5740972952E-05       4    7    1        -0.3271419309E-03      0.8149311479E-03

    ------------------------------------------------
       NWT REQUIRED            4 OUTER ITERATIONS 
       AND A TOTAL OF          7 INNER ITERATIONS.
    ------------------------------------------------

 NO OUTPUT CONTROL FOR STRESS PERIOD   25   TIME STEP   12
 
 SOLVING FOR HEAD 
                                                   Max.-Head-Change                         Max.-Flux-Residual
  Residual-Control   Outer-Iter.   Inner-Iter.     Column Row Layer    Maximum-Head-Change  Column Row Layer    Maximum-Flux-Residual          L2-NORM 
          0                 1           2             4    7     1       0.2162924061E-01       4    7    1         0.1134619975E+01      0.2827997614E+01
          0                 2           2             4    7     1      -0.2102803488E-02       4    7    1        -0.1134009217E+00      0.2826966632E+00
          0                 3           2             4    7     1       0.1430851310E-03       4    7    1         0.7932065203E-02      0.1977871904E-01
          0                 4           1             4    7     1      -0.5686348475E-05       4    7    1        -0.3240138740E-03      0.8082624051E-03

    ------------------------------------------------
       NWT REQUIRED            4 OUTER ITERATIONS 
       AND A TOTAL OF          7 INNER ITERATIONS.
    ------------------------------------------------

 NO OUTPUT CONTROL FOR STRESS PERIOD   25   TIME STEP   13
 
 SOLVING FOR HEAD 
                                                   Max.-Head-Change                         Max.-Flux-Residual
  Residual-Control   Outer-Iter.   Inner-Iter.     Column Row Layer    Maximum-Head-Change  Column Row Layer    Maximum-Flux-Residual          L2-NORM 
          0                 1           2             4    7     1       0.2142431231E-01       4    7    1         0.1123817925E+01      0.2804832921E+01
          0                 2           2             4    7     1      -0.2082880148E-02       4    7    1        -0.1123212887E+00      0.2803812708E+00
          0                 3           2             4    7     1       0.1417294471E-03       4    7    1         0.7856547802E-02      0.1961676430E-01
          0                 4           1             4    7     1      -0.5632472212E-05       4    7    1        -0.3209290830E-03      0.8016635508E-03

    ------------------------------------------------
       NWT REQUIRED            4 OUTER ITERATIONS 
       AND A TOTAL OF          7 INNER ITERATIONS.
    ------------------------------------------------

 NO OUTPUT CONTROL FOR STRESS PERIOD   25   TIME STEP   14
 
 SOLVING FOR HEAD 
                                                   Max.-Head-Change                         Max.-Flux-Residual
  Residual-Control   Outer-Iter.   Inner-Iter.     Column Row Layer    Maximum-Head-Change  Column Row Layer    Maximum-Flux-Residual          L2-NORM 
          0                 1           2             4    7     1       0.2122229105E-01       4    7    1         0.1113170692E+01      0.2781975101E+01
          0                 2           2             4    7     1      -0.2063239436E-02       4    7    1        -0.1112571294E+00      0.2780965282E+00
          0                 3           2             4    7     1       0.1403929946E-03       4    7    1         0.7782112740E-02      0.1945692754E-01
          0                 4           1             4    7     1      -0.5579359935E-05       4    7    1        -0.3178884976E-03      0.7951351113E-03

    ------------------------------------------------
       NWT REQUIRED            4 OUTER ITERATIONS 
       AND A TOTAL OF          7 INNER ITERATIONS.
    ------------------------------------------------

 NO OUTPUT CONTROL FOR STRESS PERIOD   25   TIME STEP   15
 
 SOLVING FOR HEAD 
                                                   Max.-Head-Change                         Max.-Flux-Residual
  Residual-Control   Outer-Iter.   Inner-Iter.     Column Row Layer    Maximum-Head-Change  Column Row Layer    Maximum-Flux-Residual          L2-NORM 
          0                 1           2             4    7     1       0.2102310097E-01       4    7    1         0.1102674184E+01      0.2759417551E+01
          0                 2           2             4    7     1      -0.2043873978E-02       4    7    1        -0.1102080348E+00      0.2758418480E+00
          0                 3           2             4    7     1       0.1390752713E-03       4    7    1         0.7708731416E-02      0.1929920801E-01
          0                 4           1             4    7     1      -0.5526991844E-05       4    7    1        -0.3148909343E-03      0.7886748824E-03

    ------------------------------------------------
       NWT REQUIRED            4 OUTER ITERATIONS 
       AND A TOTAL OF          7 INNER ITERATIONS.
    ------------------------------------------------

 NO OUTPUT CONTROL FOR STRESS PERIOD   25   TIME STEP   16
 
 SOLVING FOR HEAD 
                                                   Max.-Head-Change                         Max.-Flux-Residual
  Residual-Control   Outer-Iter.   Inner-Iter.     Column Row Layer    Maximum-Head-Change  Column Row Layer    Maximum-Flux-Residual          L2-NORM 
          0                 1           2             4    7     1       0.2082667380E-01       4    7    1         0.1092324466E+01      0.2737162110E+01
          0                 2           2             4    7     1      -0.2024777136E-02       4    7    1        -0.1091736116E+00      0.2736173465E+00
          0                 3           2             4    7     1       0.1377758269E-03       4    7    1         0.7636376340E-02      0.1914360170E-01
          0                 4           1             4    7     1      -0.5475350783E-05       4    7    1        -0.3119353364E-03      0.7823204439E-03

    ------------------------------------------------
       NWT REQUIRED            4 OUTER ITERATIONS 
       AND A TOTAL OF          7 INNER ITERATIONS.
    ------------------------------------------------

 NO OUTPUT CONTROL FOR STRESS PERIOD   25   TIME STEP   17
 
 SOLVING FOR HEAD 
                                                   Max.-Head-Change                         Max.-Flux-Residual
  Residual-Control   Outer-Iter.   Inner-Iter.     Column Row Layer    Maximum-Head-Change  Column Row Layer    Maximum-Flux-Residual          L2-NORM 
          0                 1           2             4    7     1       0.2063307155E-01       4    7    1         0.1082125326E+01      0.2715193502E+01
          0                 2           2             4    7     1      -0.2005954938E-02       4    7    1        -0.1081542384E+00      0.2714214589E+00
          0                 3           2             4    7     1       0.1364950701E-03       4    7    1         0.7565073970E-02      0.1898996427E-01
          0                 4           1             4    7     1      -0.5424451950E-05       4    7    1        -0.3090226974E-03      0.7760429255E-03

    ------------------------------------------------
       NWT REQUIRED            4 OUTER ITERATIONS 
       AND A TOTAL OF          7 INNER ITERATIONS.
    ------------------------------------------------

 NO OUTPUT CONTROL FOR STRESS PERIOD   25   TIME STEP   18
 
 SOLVING FOR HEAD 
                                                   Max.-Head-Change                         Max.-Flux-Residual
  Residual-Control   Outer-Iter.   Inner-Iter.     Column Row Layer    Maximum-Head-Change  Column Row Layer    Maximum-Flux-Residual          L2-NORM 
          0                 1           2             4    7     1       0.2044195737E-01       4    7    1         0.1072058002E+01      0.2693510387E+01
          0                 2           2             4    7     1      -0.1987374738E-02       4    7    1        -0.1071480401E+00      0.2692658499E+00
          0                 3           2             4    7     1       0.1352307805E-03       4    7    1         0.7494693156E-02      0.1883919416E-01
          0                 4           1             4    7     1      -0.5374208077E-05       4    7    1        -0.3061477380E-03      0.7698965051E-03

    ------------------------------------------------
       NWT REQUIRED            4 OUTER ITERATIONS 
       AND A TOTAL OF          7 INNER ITERATIONS.
    ------------------------------------------------

 NO OUTPUT CONTROL FOR STRESS PERIOD   25   TIME STEP   19
 
 SOLVING FOR HEAD 
                                                   Max.-Head-Change                         Max.-Flux-Residual
  Residual-Control   Outer-Iter.   Inner-Iter.     Column Row Layer    Maximum-Head-Change  Column Row Layer    Maximum-Flux-Residual          L2-NORM 
          0                 1           2             4    7     1       0.2025340752E-01       4    7    1         0.1062126999E+01      0.2672097443E+01
          0                 2           2             4    7     1      -0.1969043642E-02       4    7    1        -0.1061554668E+00      0.2671138406E+00
          0                 3           2             4    7     1       0.1339834413E-03       4    7    1         0.7425265383E-02      0.1868865896E-01
          0                 4           1             4    7     1      -0.5324637356E-05       4    7    1        -0.3033116927E-03      0.7637415573E-03

    ------------------------------------------------
       NWT REQUIRED            4 OUTER ITERATIONS 
       AND A TOTAL OF          7 INNER ITERATIONS.
    ------------------------------------------------

 NO OUTPUT CONTROL FOR STRESS PERIOD   25   TIME STEP   20
 
 SOLVING FOR HEAD 
                                                   Max.-Head-Change                         Max.-Flux-Residual
  Residual-Control   Outer-Iter.   Inner-Iter.     Column Row Layer    Maximum-Head-Change  Column Row Layer    Maximum-Flux-Residual          L2-NORM 
          0                 1           2             4    7     1       0.2006749841E-01       4    7    1         0.1052336288E+01      0.2650918998E+01
          0                 2           2             4    7     1      -0.1950969387E-02       4    7    1        -0.1051769155E+00      0.2649969586E+00
          0                 3           2             4    7     1       0.1327535783E-03       4    7    1         0.7356818388E-02      0.1854055022E-01
          0                 4           1             4    7     1      -0.5275760970E-05       4    7    1        -0.3005157114E-03      0.7576770453E-03

    ------------------------------------------------
       NWT REQUIRED            4 OUTER ITERATIONS 
       AND A TOTAL OF          7 INNER ITERATIONS.
    ------------------------------------------------

 NO OUTPUT CONTROL FOR STRESS PERIOD   25   TIME STEP   21
 
 SOLVING FOR HEAD 
                                                   Max.-Head-Change                         Max.-Flux-Residual
  Residual-Control   Outer-Iter.   Inner-Iter.     Column Row Layer    Maximum-Head-Change  Column Row Layer    Maximum-Flux-Residual          L2-NORM 
          0                 1           2             4    7     1       0.1988403298E-01       4    7    1         0.1042675164E+01      0.2630008854E+01
          0                 2           2             4    7     1      -0.1933132711E-02       4    7    1        -0.1042113161E+00      0.2629068697E+00
          0                 3           2             4    7     1       0.1315398820E-03       4    7    1         0.7289277365E-02      0.1839431486E-01
          0                 4           1             4    7     1      -0.5227527456E-05       4    7    1        -0.2977567458E-03      0.7517151657E-03

    ------------------------------------------------
       NWT REQUIRED            4 OUTER ITERATIONS 
       AND A TOTAL OF          7 INNER ITERATIONS.
    ------------------------------------------------

 NO OUTPUT CONTROL FOR STRESS PERIOD   25   TIME STEP   22
 
 SOLVING FOR HEAD 
                                                   Max.-Head-Change                         Max.-Flux-Residual
  Residual-Control   Outer-Iter.   Inner-Iter.     Column Row Layer    Maximum-Head-Change  Column Row Layer    Maximum-Flux-Residual          L2-NORM 
          0                 1           2             4    7     1       0.1970295442E-01       4    7    1         0.1033140740E+01      0.2609362610E+01
          0                 2           2             4    7     1      -0.1915528090E-02       4    7    1        -0.1032583801E+00      0.2608431621E+00
          0                 3           2             4    7     1       0.1303419756E-03       4    7    1         0.7222622120E-02      0.1824995756E-01
          0                 4           1             4    7     1      -0.5179921042E-05       4    7    1        -0.2950339506E-03      0.7458086041E-03

    ------------------------------------------------
       NWT REQUIRED            4 OUTER ITERATIONS 
       AND A TOTAL OF          7 INNER ITERATIONS.
    ------------------------------------------------

 NO OUTPUT CONTROL FOR STRESS PERIOD   25   TIME STEP   23
 
 SOLVING FOR HEAD 
                                                   Max.-Head-Change                         Max.-Flux-Residual
  Residual-Control   Outer-Iter.   Inner-Iter.     Column Row Layer    Maximum-Head-Change  Column Row Layer    Maximum-Flux-Residual          L2-NORM 
          0                 1           2             4    7     1       0.1952434223E-01       4    7    1         0.1023737397E+01      0.2588976370E+01
          0                 2           2             4    7     1      -0.1898163256E-02       4    7    1        -0.1023185455E+00      0.2588054665E+00
          0                 3           2             4    7     1       0.1291603860E-03       4    7    1         0.7156883286E-02      0.1810740909E-01
          0                 4           1             4    7     1      -0.5132963717E-05       4    7    1        -0.2923486145E-03      0.7399776548E-03

    ------------------------------------------------
       NWT REQUIRED            4 OUTER ITERATIONS 
       AND A TOTAL OF          7 INNER ITERATIONS.
    ------------------------------------------------

 NO OUTPUT CONTROL FOR STRESS PERIOD   25   TIME STEP   24
 
 SOLVING FOR HEAD 
                                                   Max.-Head-Change                         Max.-Flux-Residual
  Residual-Control   Outer-Iter.   Inner-Iter.     Column Row Layer    Maximum-Head-Change  Column Row Layer    Maximum-Flux-Residual          L2-NORM 
          0                 1           2             4    7     1       0.1934787653E-01       4    7    1         0.1014447277E+01      0.2568855283E+01
          0                 2           2             4    7     1      -0.1881007106E-02       4    7    1        -0.1013900272E+00      0.2567938584E+00
          0                 3           2             4    7     1       0.1279929960E-03       4    7    1         0.7091936007E-02      0.1796668126E-01
          0                 4           1             4    7     1      -0.5086570287E-05       4    7    1        -0.2896955848E-03      0.7342481153E-03

    ------------------------------------------------
       NWT REQUIRED            4 OUTER ITERATIONS 
       AND A TOTAL OF          7 INNER ITERATIONS.
    ------------------------------------------------

 NO OUTPUT CONTROL FOR STRESS PERIOD   25   TIME STEP   25
 
 SOLVING FOR HEAD 
                                                   Max.-Head-Change                         Max.-Flux-Residual
  Residual-Control   Outer-Iter.   Inner-Iter.     Column Row Layer    Maximum-Head-Change  Column Row Layer    Maximum-Flux-Residual          L2-NORM 
          0                 1           2             4    7     1       0.1917391488E-01       4    7    1         0.1005290430E+01      0.2548985115E+01
          0                 2           2             4    7     1      -0.1864134312E-02       4    7    1        -0.1004748293E+00      0.2548590102E+00
          0                 3           2             4    7     1       0.1268448859E-03       4    7    1         0.7027920347E-02      0.1783130486E-01
          0                 4           1             4    7     1      -0.5040943032E-05       4    7    1        -0.2870806163E-03      0.7287158953E-03

    ------------------------------------------------
       NWT REQUIRED            4 OUTER ITERATIONS 
       AND A TOTAL OF          7 INNER ITERATIONS.
    ------------------------------------------------

 NO OUTPUT CONTROL FOR STRESS PERIOD   25   TIME STEP   26
 
 SOLVING FOR HEAD 
                                                   Max.-Head-Change                         Max.-Flux-Residual
  Residual-Control   Outer-Iter.   Inner-Iter.     Column Row Layer    Maximum-Head-Change  Column Row Layer    Maximum-Flux-Residual          L2-NORM 
          0                 1           2             4    7     1       0.1900185125E-01       4    7    1         0.9962393037E+00      0.2529324817E+01
          0                 2           2             4    7     1      -0.1847366258E-02       4    7    1        -0.9957019863E-01      0.2528429725E+00
          0                 3           2             4    7     1       0.1257039061E-03       4    7    1         0.6964644051E-02      0.1769031446E-01
          0                 4           1             4    7     1      -0.4995599451E-05       4    7    1        -0.2844958653E-03      0.7229438610E-03

    ------------------------------------------------
       NWT REQUIRED            4 OUTER ITERATIONS 
       AND A TOTAL OF          7 INNER ITERATIONS.
    ------------------------------------------------

 NO OUTPUT CONTROL FOR STRESS PERIOD   25   TIME STEP   27
 
 SOLVING FOR HEAD 
                                                   Max.-Head-Change                         Max.-Flux-Residual
  Residual-Control   Outer-Iter.   Inner-Iter.     Column Row Layer    Maximum-Head-Change  Column Row Layer    Maximum-Flux-Residual          L2-NORM 
          0                 1           2             4    7     1       0.1883204811E-01       4    7    1         0.9873054945E+00      0.2509875943E+01
          0                 2           2             4    7     1      -0.1830857858E-02       4    7    1        -0.9867729323E-01      0.2508989291E+00
          0                 3           2             4    7     1       0.1245805928E-03       4    7    1         0.6902187827E-02      0.1755428274E-01
          0                 4           1             4    7     1      -0.4950957918E-05       4    7    1        -0.2819446004E-03      0.7173892277E-03

    ------------------------------------------------
       NWT REQUIRED            4 OUTER ITERATIONS 
       AND A TOTAL OF          7 INNER ITERATIONS.
    ------------------------------------------------

 NO OUTPUT CONTROL FOR STRESS PERIOD   25   TIME STEP   28
 
 SOLVING FOR HEAD 
                                                   Max.-Head-Change                         Max.-Flux-Residual
  Residual-Control   Outer-Iter.   Inner-Iter.     Column Row Layer    Maximum-Head-Change  Column Row Layer    Maximum-Flux-Residual          L2-NORM 
          0                 1           2             4    7     1       0.1866442370E-01       4    7    1         0.9784867616E+00      0.2490676711E+01
          0                 2           2             4    7     1      -0.1814561278E-02       4    7    1        -0.9779588946E-01      0.2489798740E+00
          0                 3           2             4    7     1       0.1234716928E-03       4    7    1         0.6840536093E-02      0.1742006531E-01
          0                 4           1             4    7     1      -0.4906889030E-05       4    7    1        -0.2794262123E-03      0.7119156721E-03

    ------------------------------------------------
       NWT REQUIRED            4 OUTER ITERATIONS 
       AND A TOTAL OF          7 INNER ITERATIONS.
    ------------------------------------------------

 NO OUTPUT CONTROL FOR STRESS PERIOD   25   TIME STEP   29
 
 SOLVING FOR HEAD 
                                                   Max.-Head-Change                         Max.-Flux-Residual
  Residual-Control   Outer-Iter.   Inner-Iter.     Column Row Layer    Maximum-Head-Change  Column Row Layer    Maximum-Flux-Residual          L2-NORM 
          0                 1           2             4    7     1       0.1849878769E-01       4    7    1         0.9697736637E+00      0.2475697570E+01
          0                 2           2             4    7     1      -0.1798458014E-02       4    7    1        -0.9692504371E-01      0.2474736148E+00
          0                 3           2             4    7     1       0.1223759462E-03       4    7    1         0.6779622850E-02      0.1731384735E-01
          0                 4           1             4    7     1      -0.4863342245E-05       4    7    1        -0.2769379564E-03      0.7075008261E-03

    ------------------------------------------------
       NWT REQUIRED            4 OUTER ITERATIONS 
       AND A TOTAL OF          7 INNER ITERATIONS.
    ------------------------------------------------

 NO OUTPUT CONTROL FOR STRESS PERIOD   25   TIME STEP   30



 STREAM LISTING     PERIOD     25   STEP       30

 LAYER ROW COL. STREAM  RCH.  FLOW INTO     FLOW TO   FLOW OUT OF   OVRLND.     DIRECT     STREAM       STREAM     STREAM     STREAM   STREAMBED  STREAMBED
                SEG.NO.  NO.  STRM. RCH.    AQUIFER    STRM. RCH.    RUNOFF     PRECIP       ET          HEAD       DEPTH      WIDTH   CONDCTNC.   GRADIENT

   1    1    1     1     1    1.8461E+01  2.1075E-01   1.8250E+01  0.000E+00  0.000E+00  0.000E+00  1.09412E+03  1.073E+00  1.150E+01  5.174E-02  1.358E+00
   1    2    2     1     2    1.8250E+01  3.2508E-01   1.7925E+01  0.000E+00  0.000E+00  0.000E+00  1.08913E+03  1.068E+00  1.141E+01  7.990E-02  1.356E+00
   1    3    3     1     3    1.7925E+01  2.7598E-01   1.7649E+01  0.000E+00  0.000E+00  0.000E+00  1.08348E+03  1.063E+00  1.132E+01  6.792E-02  1.354E+00
   1    3    4     1     4    1.7649E+01  2.5310E-01   1.7396E+01  0.000E+00  0.000E+00  0.000E+00  1.07847E+03  1.059E+00  1.124E+01  6.236E-02  1.353E+00
   1    4    5     2     1    1.5396E+01  3.0400E-01   1.5092E+01  0.000E+00  0.000E+00  0.000E+00  1.07283E+03  8.974E-01  1.200E+01  7.800E-02  1.299E+00
   1    5    6     2     2    1.5092E+01  2.3327E-01   1.4859E+01  0.000E+00  0.000E+00  0.000E+00  1.06740E+03  8.879E-01  1.200E+01  6.000E-02  1.296E+00
   1    6    6     2     3    1.4859E+01  2.3278E-01   1.4626E+01  0.000E+00  0.000E+00  0.000E+00  1.06267E+03  8.796E-01  1.200E+01  6.000E-02  1.293E+00
   1    7    6     2     4    1.4626E+01  2.3227E-01   1.4394E+01  0.000E+00  0.000E+00  0.000E+00  1.05795E+03  8.712E-01  1.200E+01  6.000E-02  1.290E+00
   1    8    6     2     5    1.4394E+01  2.3177E-01   1.4162E+01  0.000E+00  0.000E+00  0.000E+00  1.05322E+03  8.629E-01  1.200E+01  6.000E-02  1.288E+00
   1    3    5     3     1    2.0000E+00  2.8252E-01   1.7175E+00  0.000E+00  0.000E+00  0.000E+00  1.07555E+03  1.909E+00  9.636E+00  7.227E-02  1.955E+00
   1    3    6     3     2    1.7175E+00  2.4905E-01   1.4684E+00  0.000E+00  0.000E+00  0.000E+00  1.07264E+03  1.727E+00  8.909E+00  6.682E-02  1.864E+00
   1    3    7     3     3    1.4684E+00  1.9718E-01   1.2712E+00  0.000E+00  0.000E+00  0.000E+00  1.06987E+03  1.555E+00  8.218E+00  5.547E-02  1.777E+00
   1    4    8     3     4    1.2712E+00  2.2567E-01   1.0456E+00  0.000E+00  0.000E+00  0.000E+00  1.06682E+03  1.364E+00  7.455E+00  6.709E-02  1.682E+00
   1    5    8     3     5    1.0456E+00  1.5790E-01   8.8768E-01  0.000E+00  0.000E+00  0.000E+00  1.06362E+03  1.164E+00  6.655E+00  4.991E-02  1.582E+00
   1    6    8     3     6    8.8768E-01  5.5980E-02   8.3170E-01  0.000E+00  0.000E+00  0.000E+00  1.06158E+03  1.036E+00  6.145E+00  1.844E-02  1.518E+00
   1    5   10     4     1    1.0000E+01  9.0919E-02   9.9091E+00  0.000E+00  0.000E+00  0.000E+00  1.07836E+03  6.368E-01  1.000E+01  2.500E-02  1.212E+00
   1    5    9     4     2    9.9091E+00  1.8158E-01   9.7275E+00  0.000E+00  0.000E+00  0.000E+00  1.07154E+03  6.315E-01  1.000E+01  5.000E-02  1.211E+00
   1    6    8     4     3    9.7275E+00  1.2689E-01   9.6006E+00  0.000E+00  0.000E+00  0.000E+00  1.06381E+03  6.256E-01  1.000E+01  3.500E-02  1.209E+00
   1    6    8     5     1    1.0432E+01  2.2686E-01   1.0205E+01  0.000E+00  0.000E+00  0.000E+00  1.05868E+03  6.790E-01  1.542E+01  6.166E-02  1.226E+00
   1    7    7     5     2    1.0205E+01  2.7894E-01   9.9265E+00  0.000E+00  0.000E+00  0.000E+00  1.05417E+03  6.732E-01  1.519E+01  7.594E-02  1.224E+00
   1    8    7     5     3    9.9265E+00  1.9221E-01   9.7343E+00  0.000E+00  0.000E+00  0.000E+00  1.04992E+03  6.676E-01  1.497E+01  5.241E-02  1.223E+00
   1    8    6     5     4    9.7343E+00  1.3577E-01   9.5985E+00  0.000E+00  0.000E+00  0.000E+00  1.04691E+03  6.637E-01  1.482E+01  3.706E-02  1.221E+00
   1    9    6     6     1    2.3760E+01  2.5084E-01   2.3510E+01  0.000E+00  0.000E+00  0.000E+00  1.04391E+03  1.181E+00  1.200E+01  6.000E-02  1.394E+00
   1   10    7     6     2    2.3510E+01  2.5038E-01   2.3259E+01  0.000E+00  0.000E+00  0.000E+00  1.03935E+03  1.173E+00  1.200E+01  6.000E-02  1.391E+00
   1   11    7     6     3    2.3259E+01  2.4993E-01   2.3009E+01  0.000E+00  0.000E+00  0.000E+00  1.03480E+03  1.166E+00  1.200E+01  6.000E-02  1.389E+00
   1   12    7     6     4    2.3009E+01  2.4948E-01   2.2760E+01  0.000E+00  0.000E+00  0.000E+00  1.03025E+03  1.158E+00  1.200E+01  6.000E-02  1.386E+00
   1   13    7     6     5    2.2760E+01  2.6359E-03   2.2757E+01  0.000E+00  0.000E+00  0.000E+00  1.02706E+03  1.154E+00  1.200E+01  2.400E-02  3.661E-02
   1   14    9     7     1    1.5000E+02  1.3380E+00   1.4866E+02  0.000E+00  0.000E+00  0.000E+00  1.03987E+03  2.288E+00  5.529E+01  5.593E-01  7.974E-01
   1   13    8     7     2    1.4866E+02  1.8593E+00   1.4680E+02  0.000E+00  0.000E+00  0.000E+00  1.03478E+03  2.279E+00  5.526E+01  6.148E-01  1.008E+00
   1   13    7     7     3    1.4680E+02  1.5280E+00   1.4527E+02  0.000E+00  0.000E+00  0.000E+00  1.02969E+03  2.270E+00  5.522E+01  5.584E-01  9.120E-01
   1   13    6     8     1    1.6803E+02  9.7642E-01   1.6706E+02  0.000E+00  0.000E+00  0.000E+00  1.02481E+03  2.936E+00  4.257E+01  4.338E-01  7.502E-01
   1   13    5     8     2    1.6706E+02  2.3803E-01   1.6682E+02  0.000E+00  0.000E+00  0.000E+00  1.01856E+03  2.932E+00  4.252E+01  4.333E-01  1.831E-01
   1   13    4     8     3    1.6682E+02 -2.2213E+00   1.6904E+02  0.000E+00  0.000E+00  0.000E+00  1.01231E+03  2.939E+00  4.261E+01  4.342E+00 -1.705E-01
   1   13    3     8     4    1.6904E+02 -3.5734E+00   1.7261E+02  0.000E+00  0.000E+00  0.000E+00  1.00608E+03  2.958E+00  4.288E+01  4.370E+00 -2.726E-01
   1   13    2     8     5    1.7261E+02 -2.5907E+00   1.7520E+02  0.000E+00  0.000E+00  0.000E+00  9.99852E+02  2.977E+00  4.317E+01  4.400E+00 -1.963E-01
   1   13    1     8     6    1.7520E+02 -2.0005E+00   1.7720E+02  0.000E+00  0.000E+00  0.000E+00  9.94867E+02  2.992E+00  4.339E+01  2.653E+00 -2.514E-01





UNSATURATED ZONE PACKAGE VOLUMETRIC BUDGET FOR  TIME STEP    30 STRESS PERIOD   25
  ------------------------------------------------------------------------------



     CUMULATIVE VOLUMES      L**3       RATES FOR THIS TIME STEP      L**3/T
     ------------------                 ------------------------

           IN:                                      IN:
           ---                                      ---
        INFILTRATION =  1006122958.7710          INFILTRATION =           0.8475

          OUT:                                     OUT:
          ----                                     ----
              UZF ET =   860758583.6891                UZF ET =           0.7500
        UZF RECHARGE =   144777846.8935          UZF RECHARGE =           0.0002

            IN - OUT =      586528.1884              IN - OUT =       9.7264E-02

          STORAGE:                                 STORAGE:
          --------                                 --------
      STORAGE CHANGE =      586540.4768        STORAGE CHANGE =       9.7264E-02

 PERCENT DISCREPANCY IS DIFFERENCE BETWEEN IN-OUT MINUS CHANGE IN STORAGE
 DIVIDED BY THE AVERAGE OF IN AND OUT TIMES 100

 PERCENT DISCREPANCY =           0.00     PERCENT DISCREPANCY =           0.00






1
  VOLUMETRIC BUDGET FOR AGRICULTURAL FIELDS AT  END OF TIME STEP   30, STRESS PERIOD  25
  ------------------------------------------------------------------------------

     CUMULATIVE VOLUMES      L**3       RATES FOR THIS TIME STEP      L**3/T
     ------------------                 ------------------------

           IN:                                      IN:
           ---                                      ---
               AG WELLS  =   952554432.0000                 AG WELLS  =           0.0000
      DIVERSION SEGMENTS =           0.0000        DIVERSION SEGMENTS =           0.0000
           GW IRRIGATION =           0.0000             GW IRRIGATION =           0.0000
           SW IRRIGATION =           0.0000             SW IRRIGATION =           0.0000
        SYSTEM LOSSES GW =           0.0000          SYSTEM LOSSES GW =           0.0000
        SYSTEM LOSSES SW =           0.0000          SYSTEM LOSSES SW =           0.0000

                TOTAL IN =   952554432.0000                  TOTAL IN =           0.0000

          OUT:                                     OUT:
          ----                                     ----
               AG WELLS  =           0.0000                 AG WELLS  =           0.0000
      DIVERSION SEGMENTS =           0.0000        DIVERSION SEGMENTS =           0.0000
           GW IRRIGATION =   952554432.0000             GW IRRIGATION =           0.0000
           SW IRRIGATION =           0.0000             SW IRRIGATION =           0.0000
        SYSTEM LOSSES GW =           0.0000          SYSTEM LOSSES GW =           0.0000
        SYSTEM LOSSES SW =           0.0000          SYSTEM LOSSES SW =           0.0000

               TOTAL OUT =   952554432.0000                 TOTAL OUT =           0.0000

                IN - OUT =           0.0000                  IN - OUT =           0.0000

     PERCENT DISCREPANCY =           0.00         PERCENT DISCREPANCY =           0.00



1
  VOLUMETRIC BUDGET FOR ENTIRE MODEL AT END OF TIME STEP   30, STRESS PERIOD  25
  ------------------------------------------------------------------------------

     CUMULATIVE VOLUMES      L**3       RATES FOR THIS TIME STEP      L**3/T
     ------------------                 ------------------------

           IN:                                      IN:
           ---                                      ---
             STORAGE     =  1217817856.0000               STORAGE     =           7.4073
       CONSTANT HEAD     =           0.0000         CONSTANT HEAD     =           0.0000
     HEAD DEP BOUNDS     =    18044476.0000       HEAD DEP BOUNDS     =           0.2859
      STREAM LEAKAGE     =   785314432.0000        STREAM LEAKAGE     =          11.6434
        UZF RECHARGE     =   144777712.0000          UZF RECHARGE     =       2.3596E-04
               GW ET     =           0.0000                 GW ET     =           0.0000
     SURFACE LEAKAGE     =           0.0000       SURFACE LEAKAGE     =           0.0000
           AG WELLS      =           0.0000             AG WELLS      =           0.0000

                TOTAL IN =  2165954304.0000                  TOTAL IN =          19.3369

          OUT:                                     OUT:
          ----                                     ----
             STORAGE     =   522543520.0000               STORAGE     =           8.6615
       CONSTANT HEAD     =           0.0000         CONSTANT HEAD     =           0.0000
     HEAD DEP BOUNDS     =    18585640.0000       HEAD DEP BOUNDS     =           0.2896
      STREAM LEAKAGE     =   654761792.0000        STREAM LEAKAGE     =          10.3858
        UZF RECHARGE     =           0.0000          UZF RECHARGE     =           0.0000
               GW ET     =    17516202.0000                 GW ET     =           0.0000
     SURFACE LEAKAGE     =           0.0000       SURFACE LEAKAGE     =           0.0000
           AG WELLS      =   952554432.0000             AG WELLS      =           0.0000

               TOTAL OUT =  2165961472.0000                 TOTAL OUT =          19.3369

                IN - OUT =       -7168.0000                  IN - OUT =       1.1444E-05

     PERCENT DISCREPANCY =          -0.00         PERCENT DISCREPANCY =           0.00






         TIME SUMMARY AT END OF TIME STEP   30 IN STRESS PERIOD   25
                    SECONDS     MINUTES      HOURS       DAYS        YEARS
                    -----------------------------------------------------------
   TIME STEP LENGTH  87667.      1461.1      24.352      1.0147     2.77799E-03
 STRESS PERIOD TIME 2.63000E+06  43833.      730.56      30.440     8.33397E-02
         TOTAL TIME 6.32067E+07 1.05345E+06  17557.      731.56      2.0029    
1
1
                            STRESS PERIOD NO.   26, LENGTH =   2630000.    
                            -----------------------------------------------

                              NUMBER OF TIME STEPS =    30

                               MULTIPLIER FOR DELT =     1.000

                            INITIAL TIME STEP SIZE =   87666.66    

 REUSING NON-PARAMETER GHB CELLS FROM LAST STRESS PERIOD

      2 GHB CELLS

 REUSING STREAM SEGMENT DATA FROM LAST STRESS PERIOD



            AREAL INFILTRATION RATE
 READING ON UNIT   19 WITH FORMAT: (FREE)              

            1           2           3           4           5           6           7           8           9          10
 ........................................................................................................................
   1   1.0000E-10  2.0000E-10   0.000       0.000       0.000       0.000       0.000       0.000       0.000       0.000    
   2   2.0000E-10  1.0000E-10  2.0000E-10   0.000       0.000      8.0000E-10  8.0000E-10  5.0000E-10   0.000       0.000    
   3    0.000      5.0000E-10  1.0000E-10  1.0000E-10  8.0000E-10  8.0000E-10  5.0000E-10  5.0000E-10   0.000       0.000    
   4   8.0000E-10  5.0000E-10  1.0000E-10  1.0000E-10  1.0000E-10  1.0000E-10  1.0000E-10  1.0000E-10  2.0000E-10   0.000    
   5   8.0000E-10  5.0000E-10  1.0000E-10  1.0000E-10  1.0000E-10  1.0000E-10  1.0000E-10  1.0000E-10  1.0000E-10  1.0000E-10
   6   8.0000E-10  5.0000E-10  5.0000E-10  2.0000E-10  2.0000E-10  1.0000E-10  1.0000E-10  1.0000E-10  1.0000E-10  5.0000E-10
   7   8.0000E-10  5.0000E-10  5.0000E-10  2.0000E-10  2.0000E-10  1.0000E-10  1.0000E-10  2.0000E-10  2.0000E-10   0.000    
   8    0.000      5.0000E-10  5.0000E-10  2.0000E-10  2.0000E-10  1.0000E-10  1.0000E-10  2.0000E-10  5.0000E-10   0.000    
   9    0.000      5.0000E-10  5.0000E-10  2.0000E-10  2.0000E-10  1.0000E-10  1.0000E-10  2.0000E-10  5.0000E-10   0.000    
  10    0.000      5.0000E-10  5.0000E-10  2.0000E-10  2.0000E-10  1.0000E-10  1.0000E-10  2.0000E-10  5.0000E-10  8.0000E-10
  11    0.000      1.0000E-10  1.0000E-10  1.0000E-10  1.0000E-10  1.0000E-10  1.0000E-10  2.0000E-10  5.0000E-10   0.000    
  12   1.0000E-10  1.0000E-10  1.0000E-10  1.0000E-10  1.0000E-10  1.0000E-10  1.0000E-10  1.0000E-10  2.0000E-10   0.000    
  13   1.0000E-10  1.0000E-10  2.0000E-10  2.0000E-10  2.0000E-10  2.0000E-10  2.0000E-10  1.0000E-10  1.0000E-10   0.000    
  14    0.000      2.0000E-10  5.0000E-10  5.0000E-10  5.0000E-10  5.0000E-10  5.0000E-10  2.0000E-10  1.0000E-10   0.000    
  15    0.000       0.000      8.0000E-10  8.0000E-10  8.0000E-10  8.0000E-10   0.000       0.000       0.000       0.000    

                  ET RATE =  5.000000E-10

 USING ET EXTINCTION DEPTH FROM PREVIOUS STRESS PERIOD. CURRENT PERIOD IS:      26

 USING EXTINCTION WATER CONTENT FROM PREVIOUS STRESS PERIOD. CURRENT PERIOD IS:      26

 USING AIR ENTRY PRESSURE FROM PREVIOUS STRESS PERIOD. CURRENT PERIOD IS:      26

 USING ROOT PRESSURE HEAD FROM PREVIOUS STRESS PERIOD. CURRENT PERIOD IS:      26

 USING ROOT ACTIVITY FROM PREVIOUS STRESS PERIOD. CURRENT PERIOD IS:      26

 PROCESSING AG STRESS PERIOD DATA

 READING AG STRESS PERIOD DATA

 READING IRRIGATION WELL

 END PROCESSING AG STRESS PERIOD DATA OPTIONS
 
 SOLVING FOR HEAD 
                                                   Max.-Head-Change                         Max.-Flux-Residual
  Residual-Control   Outer-Iter.   Inner-Iter.     Column Row Layer    Maximum-Head-Change  Column Row Layer    Maximum-Flux-Residual          L2-NORM 
          0                 1           2             4    7     1       0.1833511520E-01       4    7    1         0.9611636599E+00      0.2455271642E+01
          0                 2           2             4    7     1      -0.1782545645E-02       4    7    1        -0.9606450190E-01      0.2454366382E+00
          0                 3           2             4    7     1       0.1212931900E-03       4    7    1         0.6719430363E-02      0.1717180622E-01
          0                 4           1             4    7     1      -0.4820312614E-05       4    7    1        -0.2744791855E-03      0.7017481040E-03

    ------------------------------------------------
       NWT REQUIRED            4 OUTER ITERATIONS 
       AND A TOTAL OF          7 INNER ITERATIONS.
    ------------------------------------------------

 NO OUTPUT CONTROL FOR STRESS PERIOD   26   TIME STEP    1
 
 SOLVING FOR HEAD 
                                                   Max.-Head-Change                         Max.-Flux-Residual
  Residual-Control   Outer-Iter.   Inner-Iter.     Column Row Layer    Maximum-Head-Change  Column Row Layer    Maximum-Flux-Residual          L2-NORM 
          0                 1           2             4    7     1       0.1817350649E-01       4    7    1         0.9526627902E+00      0.2436706298E+01
          0                 2           2             4    7     1      -0.1766833919E-02       4    7    1        -0.9521486781E-01      0.2435813293E+00
          0                 3           2             4    7     1       0.1202240860E-03       4    7    1         0.6660000822E-02      0.1704206629E-01
          0                 4           1             4    7     1      -0.4777825464E-05       4    7    1        -0.2720515588E-03      0.6964609213E-03

    ------------------------------------------------
       NWT REQUIRED            4 OUTER ITERATIONS 
       AND A TOTAL OF          7 INNER ITERATIONS.
    ------------------------------------------------

 NO OUTPUT CONTROL FOR STRESS PERIOD   26   TIME STEP    2
 
 SOLVING FOR HEAD 
                                                   Max.-Head-Change                         Max.-Flux-Residual
  Residual-Control   Outer-Iter.   Inner-Iter.     Column Row Layer    Maximum-Head-Change  Column Row Layer    Maximum-Flux-Residual          L2-NORM 
          0                 1           2             4    7     1       0.1801392928E-01       4    7    1         0.9442689236E+00      0.2418386061E+01
          0                 2           2             4    7     1      -0.1751319700E-02       4    7    1        -0.9437592839E-01      0.2417504953E+00
          0                 3           2             4    7     1       0.1191684218E-03       4    7    1         0.6601319375E-02      0.1691400163E-01
          0                 4           1             4    7     1      -0.4735871930E-05       4    7    1        -0.2696544980E-03      0.6911963479E-03

    ------------------------------------------------
       NWT REQUIRED            4 OUTER ITERATIONS 
       AND A TOTAL OF          7 INNER ITERATIONS.
    ------------------------------------------------

 NO OUTPUT CONTROL FOR STRESS PERIOD   26   TIME STEP    3
 
 SOLVING FOR HEAD 
                                                   Max.-Head-Change                         Max.-Flux-Residual
  Residual-Control   Outer-Iter.   Inner-Iter.     Column Row Layer    Maximum-Head-Change  Column Row Layer    Maximum-Flux-Residual          L2-NORM 
          0                 1           2             4    7     1       0.1785620830E-01       4    7    1         0.9359730572E+00      0.2400287736E+01
          0                 2           2             4    7     1      -0.1735985943E-02       4    7    1        -0.9354678385E-01      0.2399417986E+00
          0                 3           2             4    7     1       0.1181250367E-03       4    7    1         0.6543323021E-02      0.1678749757E-01
          0                 4           1             4    7     1      -0.4694406767E-05       4    7    1        -0.2672854121E-03      0.6860463748E-03

    ------------------------------------------------
       NWT REQUIRED            4 OUTER ITERATIONS 
       AND A TOTAL OF          7 INNER ITERATIONS.
    ------------------------------------------------

 NO OUTPUT CONTROL FOR STRESS PERIOD   26   TIME STEP    4
 
 SOLVING FOR HEAD 
                                                   Max.-Head-Change                         Max.-Flux-Residual
  Residual-Control   Outer-Iter.   Inner-Iter.     Column Row Layer    Maximum-Head-Change  Column Row Layer    Maximum-Flux-Residual          L2-NORM 
          0                 1           2             4    7     1       0.1770045465E-01       4    7    1         0.9277807620E+00      0.2382421770E+01
          0                 2           2             4    7     1      -0.1720843456E-02       4    7    1        -0.9272799101E-01      0.2381562721E+00
          0                 3           1             4    7     1       0.1170946701E-03       4    7    1         0.6486050763E-02      0.1666257947E-01
          0                 4           1             4    7     1      -0.4653462097E-05       4    7    1        -0.2649459129E-03      0.6809077731E-03

    ------------------------------------------------
       NWT REQUIRED            4 OUTER ITERATIONS 
       AND A TOTAL OF          6 INNER ITERATIONS.
    ------------------------------------------------

 NO OUTPUT CONTROL FOR STRESS PERIOD   26   TIME STEP    5
 
 SOLVING FOR HEAD 
                                                   Max.-Head-Change                         Max.-Flux-Residual
  Residual-Control   Outer-Iter.   Inner-Iter.     Column Row Layer    Maximum-Head-Change  Column Row Layer    Maximum-Flux-Residual          L2-NORM 
          0                 1           2             4    7     1       0.1754662893E-01       4    7    1         0.9196904704E+00      0.2364765677E+01
          0                 2           2             4    7     1      -0.1705888403E-02       4    7    1        -0.9191939316E-01      0.2363916356E+00
          0                 3           1             4    7     1       0.1160770542E-03       4    7    1         0.6429491623E-02      0.1653913261E-01
          0                 4           1             4    7     1      -0.4613020649E-05       4    7    1        -0.2626355365E-03      0.6759195763E-03

    ------------------------------------------------
       NWT REQUIRED            4 OUTER ITERATIONS 
       AND A TOTAL OF          6 INNER ITERATIONS.
    ------------------------------------------------

 NO OUTPUT CONTROL FOR STRESS PERIOD   26   TIME STEP    6
 
 SOLVING FOR HEAD 
                                                   Max.-Head-Change                         Max.-Flux-Residual
  Residual-Control   Outer-Iter.   Inner-Iter.     Column Row Layer    Maximum-Head-Change  Column Row Layer    Maximum-Flux-Residual          L2-NORM 
          0                 1           2             4    7     1       0.1739456383E-01       4    7    1         0.9116928072E+00      0.2347330551E+01
          0                 2           2             4    7     1      -0.1691104520E-02       4    7    1        -0.9112005328E-01      0.2346491983E+00
          0                 3           1             4    7     1       0.1150710853E-03       4    7    1         0.6373580019E-02      0.1641732066E-01
          0                 4           1             4    7     1      -0.4573042705E-05       4    7    1        -0.2603516239E-03      0.6709238547E-03

    ------------------------------------------------
       NWT REQUIRED            4 OUTER ITERATIONS 
       AND A TOTAL OF          6 INNER ITERATIONS.
    ------------------------------------------------

 NO OUTPUT CONTROL FOR STRESS PERIOD   26   TIME STEP    7
 
 SOLVING FOR HEAD 
                                                   Max.-Head-Change                         Max.-Flux-Residual
  Residual-Control   Outer-Iter.   Inner-Iter.     Column Row Layer    Maximum-Head-Change  Column Row Layer    Maximum-Flux-Residual          L2-NORM 
          0                 1           2             4    7     1       0.1724436904E-01       4    7    1         0.9037937600E+00      0.2330107944E+01
          0                 2           2             4    7     1      -0.1678240217E-02       4    7    1        -0.9044633211E-01      0.2329579152E+00
          0                 3           1             4    7     1       0.1141957811E-03       4    7    1         0.6326456036E-02      0.1629899745E-01
          0                 4           1             4    7     1      -0.4538260700E-05       4    7    1        -0.2584267613E-03      0.6661375434E-03

    ------------------------------------------------
       NWT REQUIRED            4 OUTER ITERATIONS 
       AND A TOTAL OF          6 INNER ITERATIONS.
    ------------------------------------------------

 NO OUTPUT CONTROL FOR STRESS PERIOD   26   TIME STEP    8
 
 SOLVING FOR HEAD 
                                                   Max.-Head-Change                         Max.-Flux-Residual
  Residual-Control   Outer-Iter.   Inner-Iter.     Column Row Layer    Maximum-Head-Change  Column Row Layer    Maximum-Flux-Residual          L2-NORM 
          0                 1           2             4    7     1       0.1709124378E-01       4    7    1         0.8958990611E+00      0.2313074145E+01
          0                 2           2             4    7     1      -0.1661616298E-02       4    7    1        -0.8954155001E-01      0.2312254730E+00
          0                 3           1             4    7     1       0.1130646032E-03       4    7    1         0.6263168784E-02      0.1617781738E-01
          0                 4           1             4    7     1      -0.4493306135E-05       4    7    1        -0.2558415215E-03      0.6611261451E-03

    ------------------------------------------------
       NWT REQUIRED            4 OUTER ITERATIONS 
       AND A TOTAL OF          6 INNER ITERATIONS.
    ------------------------------------------------

 NO OUTPUT CONTROL FOR STRESS PERIOD   26   TIME STEP    9
 
 SOLVING FOR HEAD 
                                                   Max.-Head-Change                         Max.-Flux-Residual
  Residual-Control   Outer-Iter.   Inner-Iter.     Column Row Layer    Maximum-Head-Change  Column Row Layer    Maximum-Flux-Residual          L2-NORM 
          0                 1           2             4    7     1       0.1694194656E-01       4    7    1         0.8880376268E+00      0.2296222380E+01
          0                 2           2             4    7     1      -0.1647101488E-02       4    7    1        -0.8875582433E-01      0.2295412110E+00
          0                 3           1             4    7     1       0.1120769431E-03       4    7    1         0.6208209440E-02      0.1606000426E-01
          0                 4           1             4    7     1      -0.4454055452E-05       4    7    1        -0.2535965050E-03      0.6563107821E-03

    ------------------------------------------------
       NWT REQUIRED            4 OUTER ITERATIONS 
       AND A TOTAL OF          6 INNER ITERATIONS.
    ------------------------------------------------

 NO OUTPUT CONTROL FOR STRESS PERIOD   26   TIME STEP   10
 
 SOLVING FOR HEAD 
                                                   Max.-Head-Change                         Max.-Flux-Residual
  Residual-Control   Outer-Iter.   Inner-Iter.     Column Row Layer    Maximum-Head-Change  Column Row Layer    Maximum-Flux-Residual          L2-NORM 
          0                 1           2             4    7     1       0.1679451240E-01       4    7    1         0.8802747559E+00      0.2279573190E+01
          0                 2           2             4    7     1      -0.1632767810E-02       4    7    1        -0.8797994990E-01      0.2278771862E+00
          0                 3           1             4    7     1       0.1111016080E-03       4    7    1         0.6153939166E-02      0.1594362549E-01
          0                 4           1             4    7     1      -0.4415294291E-05       4    7    1        -0.2513796303E-03      0.6515728297E-03

    ------------------------------------------------
       NWT REQUIRED            4 OUTER ITERATIONS 
       AND A TOTAL OF          6 INNER ITERATIONS.
    ------------------------------------------------

 NO OUTPUT CONTROL FOR STRESS PERIOD   26   TIME STEP   11
 
 SOLVING FOR HEAD 
                                                   Max.-Head-Change                         Max.-Flux-Residual
  Residual-Control   Outer-Iter.   Inner-Iter.     Column Row Layer    Maximum-Head-Change  Column Row Layer    Maximum-Flux-Residual          L2-NORM 
          0                 1           2             4    7     1       0.1664903743E-01       4    7    1         0.8726158133E+00      0.2263130788E+01
          0                 2           2             4    7     1      -0.1618624606E-02       4    7    1        -0.8721446292E-01      0.2262337851E+00
          0                 3           1             4    7     1       0.1101392332E-03       4    7    1         0.6100395457E-02      0.1582866989E-01
          0                 4           1             4    7     1      -0.4377048327E-05       4    7    1        -0.2491924181E-03      0.6468867113E-03

    ------------------------------------------------
       NWT REQUIRED            4 OUTER ITERATIONS 
       AND A TOTAL OF          6 INNER ITERATIONS.
    ------------------------------------------------

 NO OUTPUT CONTROL FOR STRESS PERIOD   26   TIME STEP   12
 
 SOLVING FOR HEAD 
                                                   Max.-Head-Change                         Max.-Flux-Residual
  Residual-Control   Outer-Iter.   Inner-Iter.     Column Row Layer    Maximum-Head-Change  Column Row Layer    Maximum-Flux-Residual          L2-NORM 
          0                 1           2             4    7     1       0.1650547718E-01       4    7    1         0.8650584511E+00      0.2246884278E+01
          0                 2           2             4    7     1      -0.1604667555E-02       4    7    1        -0.8645912868E-01      0.2246099970E+00
          0                 3           1             4    7     1       0.1091895257E-03       4    7    1         0.6047561903E-02      0.1571510496E-01
          0                 4           1             4    7     1      -0.4339306046E-05       4    7    1        -0.2470342433E-03      0.6422325044E-03

    ------------------------------------------------
       NWT REQUIRED            4 OUTER ITERATIONS 
       AND A TOTAL OF          6 INNER ITERATIONS.
    ------------------------------------------------

 NO OUTPUT CONTROL FOR STRESS PERIOD   26   TIME STEP   13
 
 SOLVING FOR HEAD 
                                                   Max.-Head-Change                         Max.-Flux-Residual
  Residual-Control   Outer-Iter.   Inner-Iter.     Column Row Layer    Maximum-Head-Change  Column Row Layer    Maximum-Flux-Residual          L2-NORM 
          0                 1           2             4    7     1       0.1636379243E-01       4    7    1         0.8576003637E+00      0.2230832468E+01
          0                 2           2             4    7     1      -0.1590892844E-02       4    7    1        -0.8571371678E-01      0.2230056818E+00
          0                 3           1             4    7     1       0.1082522254E-03       4    7    1         0.5995422395E-02      0.1560295273E-01
          0                 4           1             4    7     1      -0.4302056741E-05       4    7    1        -0.2449044102E-03      0.6377087758E-03

    ------------------------------------------------
       NWT REQUIRED            4 OUTER ITERATIONS 
       AND A TOTAL OF          6 INNER ITERATIONS.
    ------------------------------------------------

 NO OUTPUT CONTROL FOR STRESS PERIOD   26   TIME STEP   14
 
 SOLVING FOR HEAD 
                                                   Max.-Head-Change                         Max.-Flux-Residual
  Residual-Control   Outer-Iter.   Inner-Iter.     Column Row Layer    Maximum-Head-Change  Column Row Layer    Maximum-Flux-Residual          L2-NORM 
          0                 1           2             4    7     1       0.1622394110E-01       4    7    1         0.8502395183E+00      0.2214967411E+01
          0                 2           2             4    7     1      -0.1577296382E-02       4    7    1        -0.8497802404E-01      0.2214199128E+00
          0                 3           1             4    7     1       0.1073270543E-03       4    7    1         0.5943962728E-02      0.1549191957E-01
          0                 4           1             4    7     1      -0.4265289360E-05       4    7    1        -0.2428023511E-03      0.6331218953E-03

    ------------------------------------------------
       NWT REQUIRED            4 OUTER ITERATIONS 
       AND A TOTAL OF          6 INNER ITERATIONS.
    ------------------------------------------------

 NO OUTPUT CONTROL FOR STRESS PERIOD   26   TIME STEP   15
 
 SOLVING FOR HEAD 
                                                   Max.-Head-Change                         Max.-Flux-Residual
  Residual-Control   Outer-Iter.   Inner-Iter.     Column Row Layer    Maximum-Head-Change  Column Row Layer    Maximum-Flux-Residual          L2-NORM 
          0                 1           2             4    7     1       0.1608588675E-01       4    7    1         0.8429737325E+00      0.2199294647E+01
          0                 2           2             4    7     1      -0.1563874624E-02       4    7    1        -0.8425183230E-01      0.2198534253E+00
          0                 3           1             4    7     1       0.1064137706E-03       4    7    1         0.5893167623E-02      0.1538234251E-01
          0                 4           1             4    7     1      -0.4228994348E-05       4    7    1        -0.2407274251E-03      0.6286259037E-03

    ------------------------------------------------
       NWT REQUIRED            4 OUTER ITERATIONS 
       AND A TOTAL OF          6 INNER ITERATIONS.
    ------------------------------------------------

 NO OUTPUT CONTROL FOR STRESS PERIOD   26   TIME STEP   16
 
 SOLVING FOR HEAD 
                                                   Max.-Head-Change                         Max.-Flux-Residual
  Residual-Control   Outer-Iter.   Inner-Iter.     Column Row Layer    Maximum-Head-Change  Column Row Layer    Maximum-Flux-Residual          L2-NORM 
          0                 1           2             4    7     1       0.1594945517E-01       4    7    1         0.8357937837E+00      0.2183804424E+01
          0                 2           2             4    7     1      -0.1550610636E-02       4    7    1        -0.8353421981E-01      0.2183051611E+00
          0                 3           1             4    7     1       0.1055112228E-03       4    7    1         0.5842972632E-02      0.1527404341E-01
          0                 4           1             4    7     1      -0.4193126114E-05       4    7    1        -0.2386770263E-03      0.6242184677E-03

    ------------------------------------------------
       NWT REQUIRED            4 OUTER ITERATIONS 
       AND A TOTAL OF          6 INNER ITERATIONS.
    ------------------------------------------------

 NO OUTPUT CONTROL FOR STRESS PERIOD   26   TIME STEP   17
 
 SOLVING FOR HEAD 
                                                   Max.-Head-Change                         Max.-Flux-Residual
  Residual-Control   Outer-Iter.   Inner-Iter.     Column Row Layer    Maximum-Head-Change  Column Row Layer    Maximum-Flux-Residual          L2-NORM 
          0                 1           2             4    7     1       0.1581488593E-01       4    7    1         0.8287126393E+00      0.2168495930E+01
          0                 2           2             4    7     1      -0.1537527706E-02       4    7    1        -0.8282648259E-01      0.2167750608E+00
          0                 3           1             4    7     1       0.1046209948E-03       4    7    1         0.5793468370E-02      0.1516701304E-01
          0                 4           1             4    7     1      -0.4157747747E-05       4    7    1        -0.2366548479E-03      0.6198524815E-03

    ------------------------------------------------
       NWT REQUIRED            4 OUTER ITERATIONS 
       AND A TOTAL OF          6 INNER ITERATIONS.
    ------------------------------------------------

 NO OUTPUT CONTROL FOR STRESS PERIOD   26   TIME STEP   18
 
 SOLVING FOR HEAD 
                                                   Max.-Head-Change                         Max.-Flux-Residual
  Residual-Control   Outer-Iter.   Inner-Iter.     Column Row Layer    Maximum-Head-Change  Column Row Layer    Maximum-Flux-Residual          L2-NORM 
          0                 1           2             4    7     1       0.1568187002E-01       4    7    1         0.8217133871E+00      0.2153361528E+01
          0                 2           2             4    7     1      -0.1524595795E-02       4    7    1        -0.8212693034E-01      0.2152623584E+00
          0                 3           1             4    7     1       0.1037410425E-03       4    7    1         0.5744536625E-02      0.1506118089E-01
          0                 4           1             4    7     1      -0.4122777048E-05       4    7    1        -0.2346560191E-03      0.6155134068E-03

    ------------------------------------------------
       NWT REQUIRED            4 OUTER ITERATIONS 
       AND A TOTAL OF          6 INNER ITERATIONS.
    ------------------------------------------------

 NO OUTPUT CONTROL FOR STRESS PERIOD   26   TIME STEP   19
 
 SOLVING FOR HEAD 
                                                   Max.-Head-Change                         Max.-Flux-Residual
  Residual-Control   Outer-Iter.   Inner-Iter.     Column Row Layer    Maximum-Head-Change  Column Row Layer    Maximum-Flux-Residual          L2-NORM 
          0                 1           2             4    7     1       0.1555064907E-01       4    7    1         0.8148093400E+00      0.2138410096E+01
          0                 2           2             4    7     1      -0.1511838392E-02       4    7    1        -0.8143689366E-01      0.2137679581E+00
          0                 3           1             4    7     1       0.1028729654E-03       4    7    1         0.5696270488E-02      0.1495665310E-01
          0                 4           1             4    7     1      -0.4088278832E-05       4    7    1        -0.2326844160E-03      0.6112394832E-03

    ------------------------------------------------
       NWT REQUIRED            4 OUTER ITERATIONS 
       AND A TOTAL OF          6 INNER ITERATIONS.
    ------------------------------------------------

 NO OUTPUT CONTROL FOR STRESS PERIOD   26   TIME STEP   20
 
 SOLVING FOR HEAD 
                                                   Max.-Head-Change                         Max.-Flux-Residual
  Residual-Control   Outer-Iter.   Inner-Iter.     Column Row Layer    Maximum-Head-Change  Column Row Layer    Maximum-Flux-Residual          L2-NORM 
          0                 1           2             4    7     1       0.1542105037E-01       4    7    1         0.8079910246E+00      0.2123629916E+01
          0                 2           2             4    7     1      -0.1499238707E-02       4    7    1        -0.8075542565E-01      0.2122906128E+00
          0                 3           1             4    7     1       0.1020156197E-03       4    7    1         0.5648603690E-02      0.1485330225E-01
          0                 4           1             4    7     1      -0.4054206819E-05       4    7    1        -0.2307372865E-03      0.6070202679E-03

    ------------------------------------------------
       NWT REQUIRED            4 OUTER ITERATIONS 
       AND A TOTAL OF          6 INNER ITERATIONS.
    ------------------------------------------------

 NO OUTPUT CONTROL FOR STRESS PERIOD   26   TIME STEP   21
 
 SOLVING FOR HEAD 
                                                   Max.-Head-Change                         Max.-Flux-Residual
  Residual-Control   Outer-Iter.   Inner-Iter.     Column Row Layer    Maximum-Head-Change  Column Row Layer    Maximum-Flux-Residual          L2-NORM 
          0                 1           2             4    7     1       0.1529290370E-01       4    7    1         0.8012494857E+00      0.2109014990E+01
          0                 2           2             4    7     1      -0.1486780190E-02       4    7    1        -0.8008163128E-01      0.2108298173E+00
          0                 3           1             4    7     1       0.1011678803E-03       4    7    1         0.5601473670E-02      0.1475110796E-01
          0                 4           1             4    7     1      -0.4020516684E-05       4    7    1        -0.2288120825E-03      0.6028405098E-03

    ------------------------------------------------
       NWT REQUIRED            4 OUTER ITERATIONS 
       AND A TOTAL OF          6 INNER ITERATIONS.
    ------------------------------------------------

 NO OUTPUT CONTROL FOR STRESS PERIOD   26   TIME STEP   22
 
 SOLVING FOR HEAD 
                                                   Max.-Head-Change                         Max.-Flux-Residual
  Residual-Control   Outer-Iter.   Inner-Iter.     Column Row Layer    Maximum-Head-Change  Column Row Layer    Maximum-Flux-Residual          L2-NORM 
          0                 1           2             4    7     1       0.1516645961E-01       4    7    1         0.7945979008E+00      0.2094570140E+01
          0                 2           2             4    7     1      -0.1474487202E-02       4    7    1        -0.7941682763E-01      0.2093860025E+00
          0                 3           1             4    7     1       0.1003314037E-03       4    7    1         0.5554972495E-02      0.1465009617E-01
          0                 4           1             4    7     1      -0.3987274280E-05       4    7    1        -0.2269125639E-03      0.5986984080E-03

    ------------------------------------------------
       NWT REQUIRED            4 OUTER ITERATIONS 
       AND A TOTAL OF          6 INNER ITERATIONS.
    ------------------------------------------------

 NO OUTPUT CONTROL FOR STRESS PERIOD   26   TIME STEP   23
 
 SOLVING FOR HEAD 
                                                   Max.-Head-Change                         Max.-Flux-Residual
  Residual-Control   Outer-Iter.   Inner-Iter.     Column Row Layer    Maximum-Head-Change  Column Row Layer    Maximum-Flux-Residual          L2-NORM 
          0                 1           2             4    7     1       0.1504154419E-01       4    7    1         0.7880272578E+00      0.2080295995E+01
          0                 2           2             4    7     1      -0.1462342832E-02       4    7    1        -0.7876011391E-01      0.2079592582E+00
          0                 3           1             4    7     1       0.9950504005E-04       4    7    1         0.5509037197E-02      0.1455031379E-01

    ------------------------------------------------
       NWT REQUIRED            3 OUTER ITERATIONS 
       AND A TOTAL OF          5 INNER ITERATIONS.
    ------------------------------------------------

 NO OUTPUT CONTROL FOR STRESS PERIOD   26   TIME STEP   24
 
 SOLVING FOR HEAD 
                                                   Max.-Head-Change                         Max.-Flux-Residual
  Residual-Control   Outer-Iter.   Inner-Iter.     Column Row Layer    Maximum-Head-Change  Column Row Layer    Maximum-Flux-Residual          L2-NORM 
          0                 1           2             4    7     1       0.1491808319E-01       4    7    1         0.7815335235E+00      0.2066169845E+01
          0                 2           2             4    7     1      -0.1450339863E-02       4    7    1        -0.7811108706E-01      0.2065472899E+00
          0                 3           1             4    7     1       0.9868829823E-04       4    7    1         0.5463639582E-02      0.1445154178E-01

    ------------------------------------------------
       NWT REQUIRED            3 OUTER ITERATIONS 
       AND A TOTAL OF          5 INNER ITERATIONS.
    ------------------------------------------------

 NO OUTPUT CONTROL FOR STRESS PERIOD   26   TIME STEP   25
 
 SOLVING FOR HEAD 
                                                   Max.-Head-Change                         Max.-Flux-Residual
  Residual-Control   Outer-Iter.   Inner-Iter.     Column Row Layer    Maximum-Head-Change  Column Row Layer    Maximum-Flux-Residual          L2-NORM 
          0                 1           2             4    7     1       0.1479610028E-01       4    7    1         0.7751175746E+00      0.2052211978E+01
          0                 2           2             4    7     1      -0.1438480596E-02       4    7    1        -0.7746983467E-01      0.2051521524E+00
          0                 3           1             4    7     1       0.9788133444E-04       4    7    1         0.5418785763E-02      0.1435393932E-01

    ------------------------------------------------
       NWT REQUIRED            3 OUTER ITERATIONS 
       AND A TOTAL OF          5 INNER ITERATIONS.
    ------------------------------------------------

 NO OUTPUT CONTROL FOR STRESS PERIOD   26   TIME STEP   26
 
 SOLVING FOR HEAD 
                                                   Max.-Head-Change                         Max.-Flux-Residual
  Residual-Control   Outer-Iter.   Inner-Iter.     Column Row Layer    Maximum-Head-Change  Column Row Layer    Maximum-Flux-Residual          L2-NORM 
          0                 1           2             4    7     1       0.1467570024E-01       4    7    1         0.7687855978E+00      0.2038415489E+01
          0                 2           2             4    7     1      -0.1426775219E-02       4    7    1        -0.7683697509E-01      0.2037731609E+00
          0                 3           1             4    7     1       0.9708484214E-04       4    7    1         0.5374519000E-02      0.1425748611E-01

    ------------------------------------------------
       NWT REQUIRED            3 OUTER ITERATIONS 
       AND A TOTAL OF          5 INNER ITERATIONS.
    ------------------------------------------------

 NO OUTPUT CONTROL FOR STRESS PERIOD   26   TIME STEP   27
 
 SOLVING FOR HEAD 
                                                   Max.-Head-Change                         Max.-Flux-Residual
  Residual-Control   Outer-Iter.   Inner-Iter.     Column Row Layer    Maximum-Head-Change  Column Row Layer    Maximum-Flux-Residual          L2-NORM 
          0                 1           2             4    7     1       0.1455671497E-01       4    7    1         0.7625283543E+00      0.2024765540E+01
          0                 2           2             4    7     1      -0.1415207387E-02       4    7    1        -0.7621158492E-01      0.2024087905E+00
          0                 3           1             4    7     1       0.9629770920E-04       4    7    1         0.5330774721E-02      0.1416202093E-01

    ------------------------------------------------
       NWT REQUIRED            3 OUTER ITERATIONS 
       AND A TOTAL OF          5 INNER ITERATIONS.
    ------------------------------------------------

 NO OUTPUT CONTROL FOR STRESS PERIOD   26   TIME STEP   28
 
 SOLVING FOR HEAD 
                                                   Max.-Head-Change                         Max.-Flux-Residual
  Residual-Control   Outer-Iter.   Inner-Iter.     Column Row Layer    Maximum-Head-Change  Column Row Layer    Maximum-Flux-Residual          L2-NORM 
          0                 1           2             4    7     1       0.1443898733E-01       4    7    1         0.7563371272E+00      0.2011273495E+01
          0                 2           2             4    7     1      -0.1403761823E-02       4    7    1        -0.7559279292E-01      0.2010601946E+00
          0                 3           1             4    7     1       0.9551889580E-04       4    7    1         0.5287491950E-02      0.1406769717E-01

    ------------------------------------------------
       NWT REQUIRED            3 OUTER ITERATIONS 
       AND A TOTAL OF          5 INNER ITERATIONS.
    ------------------------------------------------

 NO OUTPUT CONTROL FOR STRESS PERIOD   26   TIME STEP   29
 
 SOLVING FOR HEAD 
                                                   Max.-Head-Change                         Max.-Flux-Residual
  Residual-Control   Outer-Iter.   Inner-Iter.     Column Row Layer    Maximum-Head-Change  Column Row Layer    Maximum-Flux-Residual          L2-NORM 
          0                 1           2             4    7     1       0.1432289773E-01       4    7    1         0.7502331147E+00      0.1997930946E+01
          0                 2           2             4    7     1      -0.1392475514E-02       4    7    1        -0.7498271789E-01      0.1997266039E+00
          0                 3           1             4    7     1       0.9475091884E-04       4    7    1         0.5244818908E-02      0.1397438916E-01

    ------------------------------------------------
       NWT REQUIRED            3 OUTER ITERATIONS 
       AND A TOTAL OF          5 INNER ITERATIONS.
    ------------------------------------------------

 NO OUTPUT CONTROL FOR STRESS PERIOD   26   TIME STEP   30



 STREAM LISTING     PERIOD     26   STEP       30

 LAYER ROW COL. STREAM  RCH.  FLOW INTO     FLOW TO   FLOW OUT OF   OVRLND.     DIRECT     STREAM       STREAM     STREAM     STREAM   STREAMBED  STREAMBED
                SEG.NO.  NO.  STRM. RCH.    AQUIFER    STRM. RCH.    RUNOFF     PRECIP       ET          HEAD       DEPTH      WIDTH   CONDCTNC.   GRADIENT

   1    1    1     1     1    1.9000E+01  2.1427E-01   1.8786E+01  0.000E+00  0.000E+00  0.000E+00  1.09413E+03  1.082E+00  1.166E+01  5.249E-02  1.361E+00
   1    2    2     1     2    1.8786E+01  3.3054E-01   1.8455E+01  0.000E+00  0.000E+00  0.000E+00  1.08914E+03  1.077E+00  1.158E+01  8.107E-02  1.359E+00
   1    3    3     1     3    1.8455E+01  2.8064E-01   1.8175E+01  0.000E+00  0.000E+00  0.000E+00  1.08349E+03  1.072E+00  1.149E+01  6.892E-02  1.357E+00
   1    3    4     1     4    1.8175E+01  2.5740E-01   1.7917E+01  0.000E+00  0.000E+00  0.000E+00  1.07848E+03  1.068E+00  1.140E+01  6.328E-02  1.356E+00
   1    4    5     2     1    1.5917E+01  3.0542E-01   1.5612E+01  0.000E+00  0.000E+00  0.000E+00  1.07285E+03  9.157E-01  1.200E+01  7.800E-02  1.305E+00
   1    5    6     2     2    1.5612E+01  2.3438E-01   1.5377E+01  0.000E+00  0.000E+00  0.000E+00  1.06742E+03  9.063E-01  1.200E+01  6.000E-02  1.302E+00
   1    6    6     2     3    1.5377E+01  2.3388E-01   1.5143E+01  0.000E+00  0.000E+00  0.000E+00  1.06269E+03  8.980E-01  1.200E+01  6.000E-02  1.299E+00
   1    7    6     2     4    1.5143E+01  2.3338E-01   1.4910E+01  0.000E+00  0.000E+00  0.000E+00  1.05797E+03  8.897E-01  1.200E+01  6.000E-02  1.297E+00
   1    8    6     2     5    1.4910E+01  2.3289E-01   1.4677E+01  0.000E+00  0.000E+00  0.000E+00  1.05324E+03  8.814E-01  1.200E+01  6.000E-02  1.294E+00
   1    3    5     3     1    2.0000E+00  2.8252E-01   1.7175E+00  0.000E+00  0.000E+00  0.000E+00  1.07555E+03  1.909E+00  9.636E+00  7.227E-02  1.955E+00
   1    3    6     3     2    1.7175E+00  2.4905E-01   1.4684E+00  0.000E+00  0.000E+00  0.000E+00  1.07264E+03  1.727E+00  8.909E+00  6.682E-02  1.864E+00
   1    3    7     3     3    1.4684E+00  1.9718E-01   1.2712E+00  0.000E+00  0.000E+00  0.000E+00  1.06987E+03  1.555E+00  8.218E+00  5.547E-02  1.777E+00
   1    4    8     3     4    1.2712E+00  2.2567E-01   1.0456E+00  0.000E+00  0.000E+00  0.000E+00  1.06682E+03  1.364E+00  7.455E+00  6.709E-02  1.682E+00
   1    5    8     3     5    1.0456E+00  1.5790E-01   8.8768E-01  0.000E+00  0.000E+00  0.000E+00  1.06362E+03  1.164E+00  6.655E+00  4.991E-02  1.582E+00
   1    6    8     3     6    8.8768E-01  5.5980E-02   8.3170E-01  0.000E+00  0.000E+00  0.000E+00  1.06158E+03  1.036E+00  6.145E+00  1.844E-02  1.518E+00
   1    5   10     4     1    1.0000E+01  9.0919E-02   9.9091E+00  0.000E+00  0.000E+00  0.000E+00  1.07836E+03  6.368E-01  1.000E+01  2.500E-02  1.212E+00
   1    5    9     4     2    9.9091E+00  1.8158E-01   9.7275E+00  0.000E+00  0.000E+00  0.000E+00  1.07154E+03  6.315E-01  1.000E+01  5.000E-02  1.211E+00
   1    6    8     4     3    9.7275E+00  1.2689E-01   9.6006E+00  0.000E+00  0.000E+00  0.000E+00  1.06381E+03  6.256E-01  1.000E+01  3.500E-02  1.209E+00
   1    6    8     5     1    1.0432E+01  2.2686E-01   1.0205E+01  0.000E+00  0.000E+00  0.000E+00  1.05868E+03  6.790E-01  1.542E+01  6.166E-02  1.226E+00
   1    7    7     5     2    1.0205E+01  2.7894E-01   9.9265E+00  0.000E+00  0.000E+00  0.000E+00  1.05417E+03  6.732E-01  1.519E+01  7.594E-02  1.224E+00
   1    8    7     5     3    9.9265E+00  1.9221E-01   9.7343E+00  0.000E+00  0.000E+00  0.000E+00  1.04992E+03  6.676E-01  1.497E+01  5.241E-02  1.223E+00
   1    8    6     5     4    9.7343E+00  1.3577E-01   9.5985E+00  0.000E+00  0.000E+00  0.000E+00  1.04691E+03  6.637E-01  1.482E+01  3.706E-02  1.221E+00
   1    9    6     6     1    2.4276E+01  2.5176E-01   2.4024E+01  0.000E+00  0.000E+00  0.000E+00  1.04392E+03  1.196E+00  1.200E+01  6.000E-02  1.399E+00
   1   10    7     6     2    2.4024E+01  2.5131E-01   2.3773E+01  0.000E+00  0.000E+00  0.000E+00  1.03937E+03  1.188E+00  1.200E+01  6.000E-02  1.396E+00
   1   11    7     6     3    2.3773E+01  2.5086E-01   2.3522E+01  0.000E+00  0.000E+00  0.000E+00  1.03482E+03  1.181E+00  1.200E+01  6.000E-02  1.394E+00
   1   12    7     6     4    2.3522E+01  2.5041E-01   2.3271E+01  0.000E+00  0.000E+00  0.000E+00  1.03026E+03  1.173E+00  1.200E+01  6.000E-02  1.391E+00
   1   13    7     6     5    2.3271E+01  3.7612E-03   2.3268E+01  0.000E+00  0.000E+00  0.000E+00  1.02708E+03  1.170E+00  1.200E+01  2.400E-02  5.224E-02
   1   14    9     7     1    1.5000E+02  1.3394E+00   1.4866E+02  0.000E+00  0.000E+00  0.000E+00  1.03987E+03  2.288E+00  5.529E+01  5.593E-01  7.982E-01
   1   13    8     7     2    1.4866E+02  1.8672E+00   1.4679E+02  0.000E+00  0.000E+00  0.000E+00  1.03478E+03  2.279E+00  5.526E+01  6.148E-01  1.012E+00
   1   13    7     7     3    1.4679E+02  1.5454E+00   1.4525E+02  0.000E+00  0.000E+00  0.000E+00  1.02969E+03  2.270E+00  5.522E+01  5.584E-01  9.225E-01
   1   13    6     8     1    1.6852E+02  9.9685E-01   1.6752E+02  0.000E+00  0.000E+00  0.000E+00  1.02481E+03  2.939E+00  4.262E+01  4.343E-01  7.651E-01
   1   13    5     8     2    1.6752E+02  2.5572E-01   1.6726E+02  0.000E+00  0.000E+00  0.000E+00  1.01856E+03  2.935E+00  4.256E+01  4.337E-01  1.965E-01
   1   13    4     8     3    1.6726E+02 -2.1473E+00   1.6941E+02  0.000E+00  0.000E+00  0.000E+00  1.01232E+03  2.941E+00  4.265E+01  4.346E+00 -1.647E-01
   1   13    3     8     4    1.6941E+02 -3.5226E+00   1.7293E+02  0.000E+00  0.000E+00  0.000E+00  1.00608E+03  2.960E+00  4.292E+01  4.373E+00 -2.685E-01
   1   13    2     8     5    1.7293E+02 -2.5561E+00   1.7549E+02  0.000E+00  0.000E+00  0.000E+00  9.99854E+02  2.979E+00  4.320E+01  4.402E+00 -1.935E-01
   1   13    1     8     6    1.7549E+02 -1.9822E+00   1.7747E+02  0.000E+00  0.000E+00  0.000E+00  9.94869E+02  2.994E+00  4.341E+01  2.654E+00 -2.489E-01





UNSATURATED ZONE PACKAGE VOLUMETRIC BUDGET FOR  TIME STEP    30 STRESS PERIOD   26
  ------------------------------------------------------------------------------



     CUMULATIVE VOLUMES      L**3       RATES FOR THIS TIME STEP      L**3/T
     ------------------                 ------------------------

           IN:                                      IN:
           ---                                      ---
        INFILTRATION =  1008351883.6437          INFILTRATION =           0.8475

          OUT:                                     OUT:
          ----                                     ----
              UZF ET =   862731083.5674                UZF ET =           0.7500
        UZF RECHARGE =   144778394.5263          UZF RECHARGE =           0.0002

            IN - OUT =      842405.5501              IN - OUT =       9.7315E-02

          STORAGE:                                 STORAGE:
          --------                                 --------
      STORAGE CHANGE =      842417.8584        STORAGE CHANGE =       9.7315E-02

 PERCENT DISCREPANCY IS DIFFERENCE BETWEEN IN-OUT MINUS CHANGE IN STORAGE
 DIVIDED BY THE AVERAGE OF IN AND OUT TIMES 100

 PERCENT DISCREPANCY =           0.00     PERCENT DISCREPANCY =           0.00






1
  VOLUMETRIC BUDGET FOR AGRICULTURAL FIELDS AT  END OF TIME STEP   30, STRESS PERIOD  26
  ------------------------------------------------------------------------------

     CUMULATIVE VOLUMES      L**3       RATES FOR THIS TIME STEP      L**3/T
     ------------------                 ------------------------

           IN:                                      IN:
           ---                                      ---
               AG WELLS  =   952554432.0000                 AG WELLS  =           0.0000
      DIVERSION SEGMENTS =           0.0000        DIVERSION SEGMENTS =           0.0000
           GW IRRIGATION =           0.0000             GW IRRIGATION =           0.0000
           SW IRRIGATION =           0.0000             SW IRRIGATION =           0.0000
        SYSTEM LOSSES GW =           0.0000          SYSTEM LOSSES GW =           0.0000
        SYSTEM LOSSES SW =           0.0000          SYSTEM LOSSES SW =           0.0000

                TOTAL IN =   952554432.0000                  TOTAL IN =           0.0000

          OUT:                                     OUT:
          ----                                     ----
               AG WELLS  =           0.0000                 AG WELLS  =           0.0000
      DIVERSION SEGMENTS =           0.0000        DIVERSION SEGMENTS =           0.0000
           GW IRRIGATION =   952554432.0000             GW IRRIGATION =           0.0000
           SW IRRIGATION =           0.0000             SW IRRIGATION =           0.0000
        SYSTEM LOSSES GW =           0.0000          SYSTEM LOSSES GW =           0.0000
        SYSTEM LOSSES SW =           0.0000          SYSTEM LOSSES SW =           0.0000

               TOTAL OUT =   952554432.0000                 TOTAL OUT =           0.0000

                IN - OUT =           0.0000                  IN - OUT =           0.0000

     PERCENT DISCREPANCY =           0.00         PERCENT DISCREPANCY =           0.00



1
  VOLUMETRIC BUDGET FOR ENTIRE MODEL AT END OF TIME STEP   30, STRESS PERIOD  26
  ------------------------------------------------------------------------------

     CUMULATIVE VOLUMES      L**3       RATES FOR THIS TIME STEP      L**3/T
     ------------------                 ------------------------

           IN:                                      IN:
           ---                                      ---
             STORAGE     =  1235171968.0000               STORAGE     =           5.9822
       CONSTANT HEAD     =           0.0000         CONSTANT HEAD     =           0.0000
     HEAD DEP BOUNDS     =    18796538.0000       HEAD DEP BOUNDS     =           0.2860
      STREAM LEAKAGE     =   816105728.0000        STREAM LEAKAGE     =          11.7369
        UZF RECHARGE     =   144778192.0000          UZF RECHARGE     =       1.8515E-04
               GW ET     =           0.0000                 GW ET     =           0.0000
     SURFACE LEAKAGE     =           0.0000       SURFACE LEAKAGE     =           0.0000
           AG WELLS      =           0.0000             AG WELLS      =           0.0000

                TOTAL IN =  2214852352.0000                  TOTAL IN =          18.0053

          OUT:                                     OUT:
          ----                                     ----
             STORAGE     =   543685248.0000               STORAGE     =           7.5080
       CONSTANT HEAD     =           0.0000         CONSTANT HEAD     =           0.0000
     HEAD DEP BOUNDS     =    19346976.0000       HEAD DEP BOUNDS     =           0.2894
      STREAM LEAKAGE     =   681757120.0000        STREAM LEAKAGE     =          10.2083
        UZF RECHARGE     =           0.0000          UZF RECHARGE     =           0.0000
               GW ET     =    17516202.0000                 GW ET     =           0.0000
     SURFACE LEAKAGE     =           0.0000       SURFACE LEAKAGE     =           0.0000
           AG WELLS      =   952554432.0000             AG WELLS      =           0.0000

               TOTAL OUT =  2214859776.0000                 TOTAL OUT =          18.0057

                IN - OUT =       -7424.0000                  IN - OUT =      -4.2915E-04

     PERCENT DISCREPANCY =          -0.00         PERCENT DISCREPANCY =          -0.00






         TIME SUMMARY AT END OF TIME STEP   30 IN STRESS PERIOD   26
                    SECONDS     MINUTES      HOURS       DAYS        YEARS
                    -----------------------------------------------------------
   TIME STEP LENGTH  87667.      1461.1      24.352      1.0147     2.77799E-03
 STRESS PERIOD TIME 2.63000E+06  43833.      730.56      30.440     8.33397E-02
         TOTAL TIME 6.58368E+07 1.09728E+06  18288.      762.00      2.0862    
1
1
                            STRESS PERIOD NO.   27, LENGTH =   2630000.    
                            -----------------------------------------------

                              NUMBER OF TIME STEPS =    30

                               MULTIPLIER FOR DELT =     1.000

                            INITIAL TIME STEP SIZE =   87666.66    

 REUSING NON-PARAMETER GHB CELLS FROM LAST STRESS PERIOD

      2 GHB CELLS

 REUSING STREAM SEGMENT DATA FROM LAST STRESS PERIOD



            AREAL INFILTRATION RATE
 READING ON UNIT   19 WITH FORMAT: (FREE)              

            1           2           3           4           5           6           7           8           9          10
 ........................................................................................................................
   1   1.0000E-10  2.0000E-10   0.000       0.000       0.000       0.000       0.000       0.000       0.000       0.000    
   2   2.0000E-10  1.0000E-10  2.0000E-10   0.000       0.000      8.0000E-10  8.0000E-10  5.0000E-10   0.000       0.000    
   3    0.000      5.0000E-10  1.0000E-10  1.0000E-10  8.0000E-10  8.0000E-10  5.0000E-10  5.0000E-10   0.000       0.000    
   4   8.0000E-10  5.0000E-10  1.0000E-10  1.0000E-10  1.0000E-10  1.0000E-10  1.0000E-10  1.0000E-10  2.0000E-10   0.000    
   5   8.0000E-10  5.0000E-10  1.0000E-10  1.0000E-10  1.0000E-10  1.0000E-10  1.0000E-10  1.0000E-10  1.0000E-10  1.0000E-10
   6   8.0000E-10  5.0000E-10  5.0000E-10  2.0000E-10  2.0000E-10  1.0000E-10  1.0000E-10  1.0000E-10  1.0000E-10  5.0000E-10
   7   8.0000E-10  5.0000E-10  5.0000E-10  2.0000E-10  2.0000E-10  1.0000E-10  1.0000E-10  2.0000E-10  2.0000E-10   0.000    
   8    0.000      5.0000E-10  5.0000E-10  2.0000E-10  2.0000E-10  1.0000E-10  1.0000E-10  2.0000E-10  5.0000E-10   0.000    
   9    0.000      5.0000E-10  5.0000E-10  2.0000E-10  2.0000E-10  1.0000E-10  1.0000E-10  2.0000E-10  5.0000E-10   0.000    
  10    0.000      5.0000E-10  5.0000E-10  2.0000E-10  2.0000E-10  1.0000E-10  1.0000E-10  2.0000E-10  5.0000E-10  8.0000E-10
  11    0.000      1.0000E-10  1.0000E-10  1.0000E-10  1.0000E-10  1.0000E-10  1.0000E-10  2.0000E-10  5.0000E-10   0.000    
  12   1.0000E-10  1.0000E-10  1.0000E-10  1.0000E-10  1.0000E-10  1.0000E-10  1.0000E-10  1.0000E-10  2.0000E-10   0.000    
  13   1.0000E-10  1.0000E-10  2.0000E-10  2.0000E-10  2.0000E-10  2.0000E-10  2.0000E-10  1.0000E-10  1.0000E-10   0.000    
  14    0.000      2.0000E-10  5.0000E-10  5.0000E-10  5.0000E-10  5.0000E-10  5.0000E-10  2.0000E-10  1.0000E-10   0.000    
  15    0.000       0.000      8.0000E-10  8.0000E-10  8.0000E-10  8.0000E-10   0.000       0.000       0.000       0.000    

                  ET RATE =  5.000000E-10

 USING ET EXTINCTION DEPTH FROM PREVIOUS STRESS PERIOD. CURRENT PERIOD IS:      27

 USING EXTINCTION WATER CONTENT FROM PREVIOUS STRESS PERIOD. CURRENT PERIOD IS:      27

 USING AIR ENTRY PRESSURE FROM PREVIOUS STRESS PERIOD. CURRENT PERIOD IS:      27

 USING ROOT PRESSURE HEAD FROM PREVIOUS STRESS PERIOD. CURRENT PERIOD IS:      27

 USING ROOT ACTIVITY FROM PREVIOUS STRESS PERIOD. CURRENT PERIOD IS:      27

 PROCESSING AG STRESS PERIOD DATA

 READING AG STRESS PERIOD DATA

 READING IRRIGATION WELL

 END PROCESSING AG STRESS PERIOD DATA OPTIONS
 
 SOLVING FOR HEAD 
                                                   Max.-Head-Change                         Max.-Flux-Residual
  Residual-Control   Outer-Iter.   Inner-Iter.     Column Row Layer    Maximum-Head-Change  Column Row Layer    Maximum-Flux-Residual          L2-NORM 
          0                 1           2             4    7     1       0.1420801245E-01       4    7    1         0.7441920225E+00      0.1984739277E+01
          0                 2           2             4    7     1      -0.1381306289E-02       4    7    1        -0.7437893149E-01      0.1984079574E+00
          0                 3           1             4    7     1       0.9399090878E-04       4    7    1         0.5202585729E-02      0.1388214864E-01

    ------------------------------------------------
       NWT REQUIRED            3 OUTER ITERATIONS 
       AND A TOTAL OF          5 INNER ITERATIONS.
    ------------------------------------------------

 NO OUTPUT CONTROL FOR STRESS PERIOD   27   TIME STEP    1
 
 SOLVING FOR HEAD 
                                                   Max.-Head-Change                         Max.-Flux-Residual
  Residual-Control   Outer-Iter.   Inner-Iter.     Column Row Layer    Maximum-Head-Change  Column Row Layer    Maximum-Flux-Residual          L2-NORM 
          0                 1           2             4    7     1       0.1409457829E-01       4    7    1         0.7382280449E+00      0.1971688139E+01
          0                 2           2             4    7     1      -0.1370278144E-02       4    7    1        -0.7378285256E-01      0.1971034424E+00
          0                 3           1             4    7     1       0.9324049901E-04       4    7    1         0.5160891694E-02      0.1379088022E-01

    ------------------------------------------------
       NWT REQUIRED            3 OUTER ITERATIONS 
       AND A TOTAL OF          5 INNER ITERATIONS.
    ------------------------------------------------

 NO OUTPUT CONTROL FOR STRESS PERIOD   27   TIME STEP    2
 
 SOLVING FOR HEAD 
                                                   Max.-Head-Change                         Max.-Flux-Residual
  Residual-Control   Outer-Iter.   Inner-Iter.     Column Row Layer    Maximum-Head-Change  Column Row Layer    Maximum-Flux-Residual          L2-NORM 
          0                 1           2             4    7     1       0.1398243534E-01       4    7    1         0.7323319682E+00      0.1958786105E+01
          0                 2           2             4    7     1      -0.1359375531E-02       4    7    1        -0.7319356011E-01      0.1958138287E+00
          0                 3           1             4    7     1       0.9249863091E-04       4    7    1         0.5119672345E-02      0.1370069054E-01

    ------------------------------------------------
       NWT REQUIRED            3 OUTER ITERATIONS 
       AND A TOTAL OF          5 INNER ITERATIONS.
    ------------------------------------------------

 NO OUTPUT CONTROL FOR STRESS PERIOD   27   TIME STEP    3
 
 SOLVING FOR HEAD 
                                                   Max.-Head-Change                         Max.-Flux-Residual
  Residual-Control   Outer-Iter.   Inner-Iter.     Column Row Layer    Maximum-Head-Change  Column Row Layer    Maximum-Flux-Residual          L2-NORM 
          0                 1           2             4    7     1       0.1387156240E-01       4    7    1         0.7265028378E+00      0.1946025436E+01
          0                 2           2             4    7     1      -0.1348596391E-02       4    7    1        -0.7261095879E-01      0.1945383463E+00
          0                 3           1             4    7     1       0.9176516446E-04       4    7    1         0.5078921016E-02      0.1380270931E-01

    ------------------------------------------------
       NWT REQUIRED            3 OUTER ITERATIONS 
       AND A TOTAL OF          5 INNER ITERATIONS.
    ------------------------------------------------

 NO OUTPUT CONTROL FOR STRESS PERIOD   27   TIME STEP    4
 
 SOLVING FOR HEAD 
                                                   Max.-Head-Change                         Max.-Flux-Residual
  Residual-Control   Outer-Iter.   Inner-Iter.     Column Row Layer    Maximum-Head-Change  Column Row Layer    Maximum-Flux-Residual          L2-NORM 
          0                 1           2             4    7     1       0.1376207042E-01       4    7    1         0.7207468928E+00      0.1933404486E+01
          0                 2           2             4    7     1      -0.1337951510E-02       4    7    1        -0.7203567217E-01      0.1932768187E+00
          0                 3           1             4    7     1       0.9104083349E-04       4    7    1         0.5038681339E-02      0.1352319849E-01

    ------------------------------------------------
       NWT REQUIRED            3 OUTER ITERATIONS 
       AND A TOTAL OF          5 INNER ITERATIONS.
    ------------------------------------------------

 NO OUTPUT CONTROL FOR STRESS PERIOD   27   TIME STEP    5
 
 SOLVING FOR HEAD 
                                                   Max.-Head-Change                         Max.-Flux-Residual
  Residual-Control   Outer-Iter.   Inner-Iter.     Column Row Layer    Maximum-Head-Change  Column Row Layer    Maximum-Flux-Residual          L2-NORM 
          0                 1           2             4    7     1       0.1365380181E-01       4    7    1         0.7150552104E+00      0.1920924512E+01
          0                 2           2             4    7     1      -0.1327425565E-02       4    7    1        -0.7146680843E-01      0.1920293430E+00
          0                 3           1             4    7     1       0.9032459591E-04       4    7    1         0.4998890915E-02      0.1343590257E-01

    ------------------------------------------------
       NWT REQUIRED            3 OUTER ITERATIONS 
       AND A TOTAL OF          5 INNER ITERATIONS.
    ------------------------------------------------

 NO OUTPUT CONTROL FOR STRESS PERIOD   27   TIME STEP    6
 
 SOLVING FOR HEAD 
                                                   Max.-Head-Change                         Max.-Flux-Residual
  Residual-Control   Outer-Iter.   Inner-Iter.     Column Row Layer    Maximum-Head-Change  Column Row Layer    Maximum-Flux-Residual          L2-NORM 
          0                 1           2             4    7     1       0.1354673516E-01       4    7    1         0.7094269572E+00      0.1908578217E+01
          0                 2           2             4    7     1      -0.1317016478E-02       4    7    1        -0.7090428427E-01      0.1907952851E+00
          0                 3           1             4    7     1       0.8961630961E-04       4    7    1         0.4959543934E-02      0.1334960061E-01

    ------------------------------------------------
       NWT REQUIRED            3 OUTER ITERATIONS 
       AND A TOTAL OF          5 INNER ITERATIONS.
    ------------------------------------------------

 NO OUTPUT CONTROL FOR STRESS PERIOD   27   TIME STEP    7
 
 SOLVING FOR HEAD 
                                                   Max.-Head-Change                         Max.-Flux-Residual
  Residual-Control   Outer-Iter.   Inner-Iter.     Column Row Layer    Maximum-Head-Change  Column Row Layer    Maximum-Flux-Residual          L2-NORM 
          0                 1           2             4    7     1       0.1344098391E-01       4    7    1         0.7038683616E+00      0.1896363968E+01
          0                 2           2             4    7     1      -0.1306735275E-02       4    7    1        -0.7034872221E-01      0.1895743808E+00
          0                 3           1             4    7     1       0.8891672531E-04       4    7    1         0.4920683940E-02      0.1326416077E-01

    ------------------------------------------------
       NWT REQUIRED            3 OUTER ITERATIONS 
       AND A TOTAL OF          5 INNER ITERATIONS.
    ------------------------------------------------

 NO OUTPUT CONTROL FOR STRESS PERIOD   27   TIME STEP    8
 
 SOLVING FOR HEAD 
                                                   Max.-Head-Change                         Max.-Flux-Residual
  Residual-Control   Outer-Iter.   Inner-Iter.     Column Row Layer    Maximum-Head-Change  Column Row Layer    Maximum-Flux-Residual          L2-NORM 
          0                 1           2             4    7     1       0.1333638671E-01       4    7    1         0.6983706283E+00      0.1884277806E+01
          0                 2           2             4    7     1      -0.1296566271E-02       4    7    1        -0.6979924319E-01      0.1883662914E+00
          0                 3           1             4    7     1       0.8822477585E-04       4    7    1         0.4882249425E-02      0.1317965497E-01

    ------------------------------------------------
       NWT REQUIRED            3 OUTER ITERATIONS 
       AND A TOTAL OF          5 INNER ITERATIONS.
    ------------------------------------------------

 NO OUTPUT CONTROL FOR STRESS PERIOD   27   TIME STEP    9
 
 SOLVING FOR HEAD 
                                                   Max.-Head-Change                         Max.-Flux-Residual
  Residual-Control   Outer-Iter.   Inner-Iter.     Column Row Layer    Maximum-Head-Change  Column Row Layer    Maximum-Flux-Residual          L2-NORM 
          0                 1           2             4    7     1       0.1323306741E-01       4    7    1         0.6929400694E+00      0.1872337624E+01
          0                 2           2             4    7     1      -0.1286521504E-02       4    7    1        -0.6925647802E-01      0.1871727969E+00
          0                 3           1             4    7     1       0.8754127954E-04       4    7    1         0.4844284531E-02      0.1309617477E-01

    ------------------------------------------------
       NWT REQUIRED            3 OUTER ITERATIONS 
       AND A TOTAL OF          5 INNER ITERATIONS.
    ------------------------------------------------

 NO OUTPUT CONTROL FOR STRESS PERIOD   27   TIME STEP   10
 
 SOLVING FOR HEAD 
                                                   Max.-Head-Change                         Max.-Flux-Residual
  Residual-Control   Outer-Iter.   Inner-Iter.     Column Row Layer    Maximum-Head-Change  Column Row Layer    Maximum-Flux-Residual          L2-NORM 
          0                 1           2             4    7     1       0.1313086156E-01       4    7    1         0.6875684283E+00      0.1860513250E+01
          0                 2           2             4    7     1      -0.1276584989E-02       4    7    1        -0.6871960158E-01      0.1859908995E+00
          0                 3           1             4    7     1       0.8686514897E-04       4    7    1         0.4806731518E-02      0.1301350093E-01

    ------------------------------------------------
       NWT REQUIRED            3 OUTER ITERATIONS 
       AND A TOTAL OF          5 INNER ITERATIONS.
    ------------------------------------------------

 NO OUTPUT CONTROL FOR STRESS PERIOD   27   TIME STEP   11
 
 SOLVING FOR HEAD 
                                                   Max.-Head-Change                         Max.-Flux-Residual
  Residual-Control   Outer-Iter.   Inner-Iter.     Column Row Layer    Maximum-Head-Change  Column Row Layer    Maximum-Flux-Residual          L2-NORM 
          0                 1           2             4    7     1       0.1302988643E-01       4    7    1         0.6822618564E+00      0.1848815613E+01
          0                 2           2             4    7     1      -0.1266768127E-02       4    7    1        -0.6818922861E-01      0.1848216825E+00
          0                 3           1             4    7     1       0.8619716102E-04       4    7    1         0.4769633447E-02      0.1293170823E-01

    ------------------------------------------------
       NWT REQUIRED            3 OUTER ITERATIONS 
       AND A TOTAL OF          5 INNER ITERATIONS.
    ------------------------------------------------

 NO OUTPUT CONTROL FOR STRESS PERIOD   27   TIME STEP   12
 
 SOLVING FOR HEAD 
                                                   Max.-Head-Change                         Max.-Flux-Residual
  Residual-Control   Outer-Iter.   Inner-Iter.     Column Row Layer    Maximum-Head-Change  Column Row Layer    Maximum-Flux-Residual          L2-NORM 
          0                 1           2             4    7     1       0.1292998920E-01       4    7    1         0.6770117560E+00      0.1837247669E+01
          0                 2           2             4    7     1      -0.1257056059E-02       4    7    1        -0.6766449980E-01      0.1836653651E+00
          0                 3           1             4    7     1       0.8553630369E-04       4    7    1         0.4732930154E-02      0.1285079626E-01

    ------------------------------------------------
       NWT REQUIRED            3 OUTER ITERATIONS 
       AND A TOTAL OF          5 INNER ITERATIONS.
    ------------------------------------------------

 NO OUTPUT CONTROL FOR STRESS PERIOD   27   TIME STEP   13
 
 SOLVING FOR HEAD 
                                                   Max.-Head-Change                         Max.-Flux-Residual
  Residual-Control   Outer-Iter.   Inner-Iter.     Column Row Layer    Maximum-Head-Change  Column Row Layer    Maximum-Flux-Residual          L2-NORM 
          0                 1           2             4    7     1       0.1283128434E-01       4    7    1         0.6718248822E+00      0.1825802834E+01
          0                 2           2             4    7     1      -0.1247459914E-02       4    7    1        -0.6714609033E-01      0.1825213698E+00
          0                 3           1             4    7     1       0.8488333397E-04       4    7    1         0.4696668872E-02      0.1277079727E-01

    ------------------------------------------------
       NWT REQUIRED            3 OUTER ITERATIONS 
       AND A TOTAL OF          5 INNER ITERATIONS.
    ------------------------------------------------

 NO OUTPUT CONTROL FOR STRESS PERIOD   27   TIME STEP   14
 
 SOLVING FOR HEAD 
                                                   Max.-Head-Change                         Max.-Flux-Residual
  Residual-Control   Outer-Iter.   Inner-Iter.     Column Row Layer    Maximum-Head-Change  Column Row Layer    Maximum-Flux-Residual          L2-NORM 
          0                 1           2             4    7     1       0.1273361650E-01       4    7    1         0.6666924904E+00      0.1814474765E+01
          0                 2           2             4    7     1      -0.1237964590E-02       4    7    1        -0.6663312619E-01      0.1813890863E+00
          0                 3           1             4    7     1       0.8423722469E-04       4    7    1         0.4660788478E-02      0.1269156644E-01

    ------------------------------------------------
       NWT REQUIRED            3 OUTER ITERATIONS 
       AND A TOTAL OF          5 INNER ITERATIONS.
    ------------------------------------------------

 NO OUTPUT CONTROL FOR STRESS PERIOD   27   TIME STEP   15
 
 SOLVING FOR HEAD 
                                                   Max.-Head-Change                         Max.-Flux-Residual
  Residual-Control   Outer-Iter.   Inner-Iter.     Column Row Layer    Maximum-Head-Change  Column Row Layer    Maximum-Flux-Residual          L2-NORM 
          0                 1           2             4    7     1       0.1263697283E-01       4    7    1         0.6616138666E+00      0.1803270606E+01
          0                 2           2             4    7     1      -0.1228568836E-02       4    7    1        -0.6612553599E-01      0.1802691403E+00
          0                 3           1             4    7     1       0.8359789066E-04       4    7    1         0.4625283970E-02      0.1261316306E-01

    ------------------------------------------------
       NWT REQUIRED            3 OUTER ITERATIONS 
       AND A TOTAL OF          5 INNER ITERATIONS.
    ------------------------------------------------

 NO OUTPUT CONTROL FOR STRESS PERIOD   27   TIME STEP   16
 
 SOLVING FOR HEAD 
                                                   Max.-Head-Change                         Max.-Flux-Residual
  Residual-Control   Outer-Iter.   Inner-Iter.     Column Row Layer    Maximum-Head-Change  Column Row Layer    Maximum-Flux-Residual          L2-NORM 
          0                 1           2             4    7     1       0.1254160548E-01       4    7    1         0.6566030238E+00      0.1792187330E+01
          0                 2           2             4    7     1      -0.1219297168E-02       4    7    1        -0.6562472034E-01      0.1791613264E+00
          0                 3           1             4    7     1       0.8296700007E-04       4    7    1         0.4590253333E-02      0.1253570743E-01

    ------------------------------------------------
       NWT REQUIRED            3 OUTER ITERATIONS 
       AND A TOTAL OF          5 INNER ITERATIONS.
    ------------------------------------------------

 NO OUTPUT CONTROL FOR STRESS PERIOD   27   TIME STEP   17
 
 SOLVING FOR HEAD 
                                                   Max.-Head-Change                         Max.-Flux-Residual
  Residual-Control   Outer-Iter.   Inner-Iter.     Column Row Layer    Maximum-Head-Change  Column Row Layer    Maximum-Flux-Residual          L2-NORM 
          0                 1           2             4    7     1       0.1244721666E-01       4    7    1         0.6516436760E+00      0.1781212492E+01
          0                 2           2             4    7     1      -0.1210120634E-02       4    7    1        -0.6512905144E-01      0.1780645058E+00
          0                 3           1             4    7     1       0.8234258297E-04       4    7    1         0.4555582698E-02      0.1245898525E-01

    ------------------------------------------------
       NWT REQUIRED            3 OUTER ITERATIONS 
       AND A TOTAL OF          5 INNER ITERATIONS.
    ------------------------------------------------

 NO OUTPUT CONTROL FOR STRESS PERIOD   27   TIME STEP   18
 
 SOLVING FOR HEAD 
                                                   Max.-Head-Change                         Max.-Flux-Residual
  Residual-Control   Outer-Iter.   Inner-Iter.     Column Row Layer    Maximum-Head-Change  Column Row Layer    Maximum-Flux-Residual          L2-NORM 
          0                 1           2             4    7     1       0.1235379489E-01       4    7    1         0.6467350629E+00      0.1770355915E+01
          0                 2           2             4    7     1      -0.1201038117E-02       4    7    1        -0.6463845337E-01      0.1769739762E+00
          0                 3           1             4    7     1       0.8172456338E-04       4    7    1         0.4521266754E-02      0.1238270216E-01

    ------------------------------------------------
       NWT REQUIRED            3 OUTER ITERATIONS 
       AND A TOTAL OF          5 INNER ITERATIONS.
    ------------------------------------------------

 NO OUTPUT CONTROL FOR STRESS PERIOD   27   TIME STEP   19
 
 SOLVING FOR HEAD 
                                                   Max.-Head-Change                         Max.-Flux-Residual
  Residual-Control   Outer-Iter.   Inner-Iter.     Column Row Layer    Maximum-Head-Change  Column Row Layer    Maximum-Flux-Residual          L2-NORM 
          0                 1           2             4    7     1       0.1226146275E-01       4    7    1         0.6418839301E+00      0.1759618048E+01
          0                 2           2             4    7     1      -0.1192061535E-02       4    7    1        -0.6415360023E-01      0.1759058020E+00
          0                 3           1             4    7     1       0.8111375179E-04       4    7    1         0.4487352645E-02      0.1230795634E-01

    ------------------------------------------------
       NWT REQUIRED            3 OUTER ITERATIONS 
       AND A TOTAL OF          5 INNER ITERATIONS.
    ------------------------------------------------

 NO OUTPUT CONTROL FOR STRESS PERIOD   27   TIME STEP   20
 
 SOLVING FOR HEAD 
                                                   Max.-Head-Change                         Max.-Flux-Residual
  Residual-Control   Outer-Iter.   Inner-Iter.     Column Row Layer    Maximum-Head-Change  Column Row Layer    Maximum-Flux-Residual          L2-NORM 
          0                 1           2             4    7     1       0.1217019556E-01       4    7    1         0.6370892923E+00      0.1748990416E+01
          0                 2           2             4    7     1      -0.1183188489E-02       4    7    1        -0.6367439368E-01      0.1748434583E+00
          0                 3           1             4    7     1       0.8050998550E-04       4    7    1         0.4453833521E-02      0.1223363270E-01

    ------------------------------------------------
       NWT REQUIRED            3 OUTER ITERATIONS 
       AND A TOTAL OF          5 INNER ITERATIONS.
    ------------------------------------------------

 NO OUTPUT CONTROL FOR STRESS PERIOD   27   TIME STEP   21
 
 SOLVING FOR HEAD 
                                                   Max.-Head-Change                         Max.-Flux-Residual
  Residual-Control   Outer-Iter.   Inner-Iter.     Column Row Layer    Maximum-Head-Change  Column Row Layer    Maximum-Flux-Residual          L2-NORM 
          0                 1           2             4    7     1       0.1207984483E-01       4    7    1         0.6323425296E+00      0.1738472770E+01
          0                 2           2             4    7     1      -0.1174404542E-02       4    7    1        -0.6319997206E-01      0.1737921407E+00
          0                 3           1             4    7     1       0.7991228182E-04       4    7    1         0.4420649065E-02      0.1216007144E-01

    ------------------------------------------------
       NWT REQUIRED            3 OUTER ITERATIONS 
       AND A TOTAL OF          5 INNER ITERATIONS.
    ------------------------------------------------

 NO OUTPUT CONTROL FOR STRESS PERIOD   27   TIME STEP   22
 
 SOLVING FOR HEAD 
                                                   Max.-Head-Change                         Max.-Flux-Residual
  Residual-Control   Outer-Iter.   Inner-Iter.     Column Row Layer    Maximum-Head-Change  Column Row Layer    Maximum-Flux-Residual          L2-NORM 
          0                 1           2             4    7     1       0.1199052974E-01       4    7    1         0.6276506246E+00      0.1728070047E+01
          0                 2           2             4    7     1      -0.1165721281E-02       4    7    1        -0.6273103332E-01      0.1727523526E+00
          0                 3           1             4    7     1       0.7932142960E-04       4    7    1         0.4387848132E-02      0.1208736812E-01

    ------------------------------------------------
       NWT REQUIRED            3 OUTER ITERATIONS 
       AND A TOTAL OF          5 INNER ITERATIONS.
    ------------------------------------------------

 NO OUTPUT CONTROL FOR STRESS PERIOD   27   TIME STEP   23
 
 SOLVING FOR HEAD 
                                                   Max.-Head-Change                         Max.-Flux-Residual
  Residual-Control   Outer-Iter.   Inner-Iter.     Column Row Layer    Maximum-Head-Change  Column Row Layer    Maximum-Flux-Residual          L2-NORM 
          0                 1           2             4    7     1       0.1190223328E-01       4    7    1         0.6230124161E+00      0.1717770118E+01
          0                 2           2             4    7     1      -0.1157137052E-02       4    7    1        -0.6226746138E-01      0.1717228119E+00
          0                 3           1             4    7     1       0.7873731547E-04       4    7    1         0.4355422579E-02      0.1201533122E-01

    ------------------------------------------------
       NWT REQUIRED            3 OUTER ITERATIONS 
       AND A TOTAL OF          5 INNER ITERATIONS.
    ------------------------------------------------

 NO OUTPUT CONTROL FOR STRESS PERIOD   27   TIME STEP   24
 
 SOLVING FOR HEAD 
                                                   Max.-Head-Change                         Max.-Flux-Residual
  Residual-Control   Outer-Iter.   Inner-Iter.     Column Row Layer    Maximum-Head-Change  Column Row Layer    Maximum-Flux-Residual          L2-NORM 
          0                 1           2             4    7     1       0.1181480659E-01       4    7    1         0.6184196802E+00      0.1707580517E+01
          0                 2           2             4    7     1      -0.1148637383E-02       4    7    1        -0.6180843429E-01      0.1707042773E+00
          0                 3           1             4    7     1       0.7815895605E-04       4    7    1         0.4323314950E-02      0.1194406392E-01

    ------------------------------------------------
       NWT REQUIRED            3 OUTER ITERATIONS 
       AND A TOTAL OF          5 INNER ITERATIONS.
    ------------------------------------------------

 NO OUTPUT CONTROL FOR STRESS PERIOD   27   TIME STEP   25
 
 SOLVING FOR HEAD 
                                                   Max.-Head-Change                         Max.-Flux-Residual
  Residual-Control   Outer-Iter.   Inner-Iter.     Column Row Layer    Maximum-Head-Change  Column Row Layer    Maximum-Flux-Residual          L2-NORM 
          0                 1           2             4    7     1       0.1172836960E-01       4    7    1         0.6138793815E+00      0.1697494153E+01
          0                 2           2             4    7     1      -0.1140233933E-02       4    7    1        -0.6135464813E-01      0.1696960668E+00
          0                 3           1             4    7     1       0.7758714301E-04       4    7    1         0.4291573883E-02      0.1187355350E-01

    ------------------------------------------------
       NWT REQUIRED            3 OUTER ITERATIONS 
       AND A TOTAL OF          5 INNER ITERATIONS.
    ------------------------------------------------

 NO OUTPUT CONTROL FOR STRESS PERIOD   27   TIME STEP   26
 
 SOLVING FOR HEAD 
                                                   Max.-Head-Change                         Max.-Flux-Residual
  Residual-Control   Outer-Iter.   Inner-Iter.     Column Row Layer    Maximum-Head-Change  Column Row Layer    Maximum-Flux-Residual          L2-NORM 
          0                 1           2             4    7     1       0.1164290548E-01       4    7    1         0.6093903971E+00      0.1687500525E+01
          0                 2           2             4    7     1      -0.1131925068E-02       4    7    1        -0.6090599075E-01      0.1686971598E+00
          0                 3           1             4    7     1       0.7702176666E-04       4    7    1         0.4260191586E-02      0.1180368402E-01

    ------------------------------------------------
       NWT REQUIRED            3 OUTER ITERATIONS 
       AND A TOTAL OF          5 INNER ITERATIONS.
    ------------------------------------------------

 NO OUTPUT CONTROL FOR STRESS PERIOD   27   TIME STEP   27
 
 SOLVING FOR HEAD 
                                                   Max.-Head-Change                         Max.-Flux-Residual
  Residual-Control   Outer-Iter.   Inner-Iter.     Column Row Layer    Maximum-Head-Change  Column Row Layer    Maximum-Flux-Residual          L2-NORM 
          0                 1           2             4    7     1       0.1155826331E-01       4    7    1         0.6049445124E+00      0.1677618222E+01
          0                 2           2             4    7     1      -0.1123696113E-02       4    7    1        -0.6046164101E-01      0.1677093245E+00
          0                 3           1             4    7     1       0.7646182704E-04       4    7    1         0.4229110571E-02      0.1173456042E-01

    ------------------------------------------------
       NWT REQUIRED            3 OUTER ITERATIONS 
       AND A TOTAL OF          5 INNER ITERATIONS.
    ------------------------------------------------

 NO OUTPUT CONTROL FOR STRESS PERIOD   27   TIME STEP   28
 
 SOLVING FOR HEAD 
                                                   Max.-Head-Change                         Max.-Flux-Residual
  Residual-Control   Outer-Iter.   Inner-Iter.     Column Row Layer    Maximum-Head-Change  Column Row Layer    Maximum-Flux-Residual          L2-NORM 
          0                 1           2             4    7     1       0.1147470121E-01       4    7    1         0.6005559288E+00      0.1667838434E+01
          0                 2           2             4    7     1      -0.1115572164E-02       4    7    1        -0.6002301835E-01      0.1667317763E+00
          0                 3           1             4    7     1       0.7590903331E-04       4    7    1         0.4198430171E-02      0.1166617578E-01

    ------------------------------------------------
       NWT REQUIRED            3 OUTER ITERATIONS 
       AND A TOTAL OF          5 INNER ITERATIONS.
    ------------------------------------------------

 NO OUTPUT CONTROL FOR STRESS PERIOD   27   TIME STEP   29
 
 SOLVING FOR HEAD 
                                                   Max.-Head-Change                         Max.-Flux-Residual
  Residual-Control   Outer-Iter.   Inner-Iter.     Column Row Layer    Maximum-Head-Change  Column Row Layer    Maximum-Flux-Residual          L2-NORM 
          0                 1           2             4    7     1       0.1139192853E-01       4    7    1         0.5962086604E+00      0.1658149447E+01
          0                 2           2             4    7     1      -0.1107524963E-02       4    7    1        -0.5958852500E-01      0.1657632755E+00
          0                 3           1             4    7     1       0.7536146165E-04       4    7    1         0.4168038609E-02      0.1159841151E-01

    ------------------------------------------------
       NWT REQUIRED            3 OUTER ITERATIONS 
       AND A TOTAL OF          5 INNER ITERATIONS.
    ------------------------------------------------

 NO OUTPUT CONTROL FOR STRESS PERIOD   27   TIME STEP   30



 STREAM LISTING     PERIOD     27   STEP       30

 LAYER ROW COL. STREAM  RCH.  FLOW INTO     FLOW TO   FLOW OUT OF   OVRLND.     DIRECT     STREAM       STREAM     STREAM     STREAM   STREAMBED  STREAMBED
                SEG.NO.  NO.  STRM. RCH.    AQUIFER    STRM. RCH.    RUNOFF     PRECIP       ET          HEAD       DEPTH      WIDTH   CONDCTNC.   GRADIENT

   1    1    1     1     1    1.9000E+01  2.1427E-01   1.8786E+01  0.000E+00  0.000E+00  0.000E+00  1.09413E+03  1.082E+00  1.166E+01  5.249E-02  1.361E+00
   1    2    2     1     2    1.8786E+01  3.3054E-01   1.8455E+01  0.000E+00  0.000E+00  0.000E+00  1.08914E+03  1.077E+00  1.158E+01  8.107E-02  1.359E+00
   1    3    3     1     3    1.8455E+01  2.8064E-01   1.8175E+01  0.000E+00  0.000E+00  0.000E+00  1.08349E+03  1.072E+00  1.149E+01  6.892E-02  1.357E+00
   1    3    4     1     4    1.8175E+01  2.5740E-01   1.7917E+01  0.000E+00  0.000E+00  0.000E+00  1.07848E+03  1.068E+00  1.140E+01  6.328E-02  1.356E+00
   1    4    5     2     1    1.5917E+01  3.0542E-01   1.5612E+01  0.000E+00  0.000E+00  0.000E+00  1.07285E+03  9.157E-01  1.200E+01  7.800E-02  1.305E+00
   1    5    6     2     2    1.5612E+01  2.3438E-01   1.5377E+01  0.000E+00  0.000E+00  0.000E+00  1.06742E+03  9.063E-01  1.200E+01  6.000E-02  1.302E+00
   1    6    6     2     3    1.5377E+01  2.3388E-01   1.5143E+01  0.000E+00  0.000E+00  0.000E+00  1.06269E+03  8.980E-01  1.200E+01  6.000E-02  1.299E+00
   1    7    6     2     4    1.5143E+01  2.3338E-01   1.4910E+01  0.000E+00  0.000E+00  0.000E+00  1.05797E+03  8.897E-01  1.200E+01  6.000E-02  1.297E+00
   1    8    6     2     5    1.4910E+01  2.3289E-01   1.4677E+01  0.000E+00  0.000E+00  0.000E+00  1.05324E+03  8.814E-01  1.200E+01  6.000E-02  1.294E+00
   1    3    5     3     1    2.0000E+00  2.8252E-01   1.7175E+00  0.000E+00  0.000E+00  0.000E+00  1.07555E+03  1.909E+00  9.636E+00  7.227E-02  1.955E+00
   1    3    6     3     2    1.7175E+00  2.4905E-01   1.4684E+00  0.000E+00  0.000E+00  0.000E+00  1.07264E+03  1.727E+00  8.909E+00  6.682E-02  1.864E+00
   1    3    7     3     3    1.4684E+00  1.9718E-01   1.2712E+00  0.000E+00  0.000E+00  0.000E+00  1.06987E+03  1.555E+00  8.218E+00  5.547E-02  1.777E+00
   1    4    8     3     4    1.2712E+00  2.2567E-01   1.0456E+00  0.000E+00  0.000E+00  0.000E+00  1.06682E+03  1.364E+00  7.455E+00  6.709E-02  1.682E+00
   1    5    8     3     5    1.0456E+00  1.5790E-01   8.8768E-01  0.000E+00  0.000E+00  0.000E+00  1.06362E+03  1.164E+00  6.655E+00  4.991E-02  1.582E+00
   1    6    8     3     6    8.8768E-01  5.5980E-02   8.3170E-01  0.000E+00  0.000E+00  0.000E+00  1.06158E+03  1.036E+00  6.145E+00  1.844E-02  1.518E+00
   1    5   10     4     1    1.0000E+01  9.0919E-02   9.9091E+00  0.000E+00  0.000E+00  0.000E+00  1.07836E+03  6.368E-01  1.000E+01  2.500E-02  1.212E+00
   1    5    9     4     2    9.9091E+00  1.8158E-01   9.7275E+00  0.000E+00  0.000E+00  0.000E+00  1.07154E+03  6.315E-01  1.000E+01  5.000E-02  1.211E+00
   1    6    8     4     3    9.7275E+00  1.2689E-01   9.6006E+00  0.000E+00  0.000E+00  0.000E+00  1.06381E+03  6.256E-01  1.000E+01  3.500E-02  1.209E+00
   1    6    8     5     1    1.0432E+01  2.2686E-01   1.0205E+01  0.000E+00  0.000E+00  0.000E+00  1.05868E+03  6.790E-01  1.542E+01  6.166E-02  1.226E+00
   1    7    7     5     2    1.0205E+01  2.7894E-01   9.9265E+00  0.000E+00  0.000E+00  0.000E+00  1.05417E+03  6.732E-01  1.519E+01  7.594E-02  1.224E+00
   1    8    7     5     3    9.9265E+00  1.9221E-01   9.7343E+00  0.000E+00  0.000E+00  0.000E+00  1.04992E+03  6.676E-01  1.497E+01  5.241E-02  1.223E+00
   1    8    6     5     4    9.7343E+00  1.3577E-01   9.5985E+00  0.000E+00  0.000E+00  0.000E+00  1.04691E+03  6.637E-01  1.482E+01  3.706E-02  1.221E+00
   1    9    6     6     1    2.4276E+01  2.5176E-01   2.4024E+01  0.000E+00  0.000E+00  0.000E+00  1.04392E+03  1.196E+00  1.200E+01  6.000E-02  1.399E+00
   1   10    7     6     2    2.4024E+01  2.5131E-01   2.3773E+01  0.000E+00  0.000E+00  0.000E+00  1.03937E+03  1.188E+00  1.200E+01  6.000E-02  1.396E+00
   1   11    7     6     3    2.3773E+01  2.5086E-01   2.3522E+01  0.000E+00  0.000E+00  0.000E+00  1.03482E+03  1.181E+00  1.200E+01  6.000E-02  1.394E+00
   1   12    7     6     4    2.3522E+01  2.5041E-01   2.3271E+01  0.000E+00  0.000E+00  0.000E+00  1.03026E+03  1.173E+00  1.200E+01  6.000E-02  1.391E+00
   1   13    7     6     5    2.3271E+01  4.4702E-03   2.3267E+01  0.000E+00  0.000E+00  0.000E+00  1.02708E+03  1.170E+00  1.200E+01  2.400E-02  6.209E-02
   1   14    9     7     1    1.5000E+02  1.3409E+00   1.4866E+02  0.000E+00  0.000E+00  0.000E+00  1.03987E+03  2.288E+00  5.529E+01  5.593E-01  7.991E-01
   1   13    8     7     2    1.4866E+02  1.8754E+00   1.4678E+02  0.000E+00  0.000E+00  0.000E+00  1.03478E+03  2.279E+00  5.526E+01  6.148E-01  1.017E+00
   1   13    7     7     3    1.4678E+02  1.5619E+00   1.4522E+02  0.000E+00  0.000E+00  0.000E+00  1.02969E+03  2.270E+00  5.521E+01  5.584E-01  9.323E-01
   1   13    6     8     1    1.6849E+02  1.0122E+00   1.6748E+02  0.000E+00  0.000E+00  0.000E+00  1.02481E+03  2.939E+00  4.262E+01  4.343E-01  7.770E-01
   1   13    5     8     2    1.6748E+02  2.6846E-01   1.6721E+02  0.000E+00  0.000E+00  0.000E+00  1.01856E+03  2.935E+00  4.255E+01  4.336E-01  2.064E-01
   1   13    4     8     3    1.6721E+02 -2.1088E+00   1.6932E+02  0.000E+00  0.000E+00  0.000E+00  1.01232E+03  2.941E+00  4.264E+01  4.345E+00 -1.618E-01
   1   13    3     8     4    1.6932E+02 -3.4996E+00   1.7282E+02  0.000E+00  0.000E+00  0.000E+00  1.00608E+03  2.959E+00  4.291E+01  4.372E+00 -2.668E-01
   1   13    2     8     5    1.7282E+02 -2.5482E+00   1.7536E+02  0.000E+00  0.000E+00  0.000E+00  9.99854E+02  2.979E+00  4.319E+01  4.401E+00 -1.930E-01
   1   13    1     8     6    1.7536E+02 -1.9780E+00   1.7734E+02  0.000E+00  0.000E+00  0.000E+00  9.94868E+02  2.993E+00  4.340E+01  2.654E+00 -2.485E-01





UNSATURATED ZONE PACKAGE VOLUMETRIC BUDGET FOR  TIME STEP    30 STRESS PERIOD   27
  ------------------------------------------------------------------------------



     CUMULATIVE VOLUMES      L**3       RATES FOR THIS TIME STEP      L**3/T
     ------------------                 ------------------------

           IN:                                      IN:
           ---                                      ---
        INFILTRATION =  1010580808.5165          INFILTRATION =           0.8475

          OUT:                                     OUT:
          ----                                     ----
              UZF ET =   864703583.4406                UZF ET =           0.7500
        UZF RECHARGE =   144778829.6525          UZF RECHARGE =           0.0001

            IN - OUT =     1098395.4234              IN - OUT =       9.7351E-02

          STORAGE:                                 STORAGE:
          --------                                 --------
      STORAGE CHANGE =     1098407.7525        STORAGE CHANGE =       9.7351E-02

 PERCENT DISCREPANCY IS DIFFERENCE BETWEEN IN-OUT MINUS CHANGE IN STORAGE
 DIVIDED BY THE AVERAGE OF IN AND OUT TIMES 100

 PERCENT DISCREPANCY =           0.00     PERCENT DISCREPANCY =           0.00






1
  VOLUMETRIC BUDGET FOR AGRICULTURAL FIELDS AT  END OF TIME STEP   30, STRESS PERIOD  27
  ------------------------------------------------------------------------------

     CUMULATIVE VOLUMES      L**3       RATES FOR THIS TIME STEP      L**3/T
     ------------------                 ------------------------

           IN:                                      IN:
           ---                                      ---
               AG WELLS  =   952554432.0000                 AG WELLS  =           0.0000
      DIVERSION SEGMENTS =           0.0000        DIVERSION SEGMENTS =           0.0000
           GW IRRIGATION =           0.0000             GW IRRIGATION =           0.0000
           SW IRRIGATION =           0.0000             SW IRRIGATION =           0.0000
        SYSTEM LOSSES GW =           0.0000          SYSTEM LOSSES GW =           0.0000
        SYSTEM LOSSES SW =           0.0000          SYSTEM LOSSES SW =           0.0000

                TOTAL IN =   952554432.0000                  TOTAL IN =           0.0000

          OUT:                                     OUT:
          ----                                     ----
               AG WELLS  =           0.0000                 AG WELLS  =           0.0000
      DIVERSION SEGMENTS =           0.0000        DIVERSION SEGMENTS =           0.0000
           GW IRRIGATION =   952554432.0000             GW IRRIGATION =           0.0000
           SW IRRIGATION =           0.0000             SW IRRIGATION =           0.0000
        SYSTEM LOSSES GW =           0.0000          SYSTEM LOSSES GW =           0.0000
        SYSTEM LOSSES SW =           0.0000          SYSTEM LOSSES SW =           0.0000

               TOTAL OUT =   952554432.0000                 TOTAL OUT =           0.0000

                IN - OUT =           0.0000                  IN - OUT =           0.0000

     PERCENT DISCREPANCY =           0.00         PERCENT DISCREPANCY =           0.00



1
  VOLUMETRIC BUDGET FOR ENTIRE MODEL AT END OF TIME STEP   30, STRESS PERIOD  27
  ------------------------------------------------------------------------------

     CUMULATIVE VOLUMES      L**3       RATES FOR THIS TIME STEP      L**3/T
     ------------------                 ------------------------

           IN:                                      IN:
           ---                                      ---
             STORAGE     =  1249440128.0000               STORAGE     =           4.9446
       CONSTANT HEAD     =           0.0000         CONSTANT HEAD     =           0.0000
     HEAD DEP BOUNDS     =    19548860.0000       HEAD DEP BOUNDS     =           0.2861
      STREAM LEAKAGE     =   847049920.0000        STREAM LEAKAGE     =          11.7919
        UZF RECHARGE     =   144778672.0000          UZF RECHARGE     =       1.4893E-04
               GW ET     =           0.0000                 GW ET     =           0.0000
     SURFACE LEAKAGE     =           0.0000       SURFACE LEAKAGE     =           0.0000
           AG WELLS      =           0.0000             AG WELLS      =           0.0000

                TOTAL IN =  2260817664.0000                  TOTAL IN =          17.0228

          OUT:                                     OUT:
          ----                                     ----
             STORAGE     =   562149056.0000               STORAGE     =           6.5994
       CONSTANT HEAD     =           0.0000         CONSTANT HEAD     =           0.0000
     HEAD DEP BOUNDS     =    20107966.0000       HEAD DEP BOUNDS     =           0.2893
      STREAM LEAKAGE     =   708498752.0000        STREAM LEAKAGE     =          10.1345
        UZF RECHARGE     =           0.0000          UZF RECHARGE     =           0.0000
               GW ET     =    17516202.0000                 GW ET     =           0.0000
     SURFACE LEAKAGE     =           0.0000       SURFACE LEAKAGE     =           0.0000
           AG WELLS      =   952554432.0000             AG WELLS      =           0.0000

               TOTAL OUT =  2260826368.0000                 TOTAL OUT =          17.0232

                IN - OUT =       -8704.0000                  IN - OUT =      -4.6921E-04

     PERCENT DISCREPANCY =          -0.00         PERCENT DISCREPANCY =          -0.00






         TIME SUMMARY AT END OF TIME STEP   30 IN STRESS PERIOD   27
                    SECONDS     MINUTES      HOURS       DAYS        YEARS
                    -----------------------------------------------------------
   TIME STEP LENGTH  87667.      1461.1      24.352      1.0147     2.77799E-03
 STRESS PERIOD TIME 2.63000E+06  43833.      730.56      30.440     8.33397E-02
         TOTAL TIME 6.84668E+07 1.14111E+06  19019.      792.44      2.1696    
1
1
                            STRESS PERIOD NO.   28, LENGTH =   2630000.    
                            -----------------------------------------------

                              NUMBER OF TIME STEPS =    30

                               MULTIPLIER FOR DELT =     1.000

                            INITIAL TIME STEP SIZE =   87666.66    

 REUSING NON-PARAMETER GHB CELLS FROM LAST STRESS PERIOD

      2 GHB CELLS

 REUSING STREAM SEGMENT DATA FROM LAST STRESS PERIOD



            AREAL INFILTRATION RATE
 READING ON UNIT   19 WITH FORMAT: (FREE)              

            1           2           3           4           5           6           7           8           9          10
 ........................................................................................................................
   1   1.0000E-10  2.0000E-10   0.000       0.000       0.000       0.000       0.000       0.000       0.000       0.000    
   2   2.0000E-10  1.0000E-10  2.0000E-10   0.000       0.000      8.0000E-10  8.0000E-10  5.0000E-10   0.000       0.000    
   3    0.000      5.0000E-10  1.0000E-10  1.0000E-10  8.0000E-10  8.0000E-10  5.0000E-10  5.0000E-10   0.000       0.000    
   4   8.0000E-10  5.0000E-10  1.0000E-10  1.0000E-10  1.0000E-10  1.0000E-10  1.0000E-10  1.0000E-10  2.0000E-10   0.000    
   5   8.0000E-10  5.0000E-10  1.0000E-10  1.0000E-10  1.0000E-10  1.0000E-10  1.0000E-10  1.0000E-10  1.0000E-10  1.0000E-10
   6   8.0000E-10  5.0000E-10  5.0000E-10  2.0000E-10  2.0000E-10  1.0000E-10  1.0000E-10  1.0000E-10  1.0000E-10  5.0000E-10
   7   8.0000E-10  5.0000E-10  5.0000E-10  2.0000E-10  2.0000E-10  1.0000E-10  1.0000E-10  2.0000E-10  2.0000E-10   0.000    
   8    0.000      5.0000E-10  5.0000E-10  2.0000E-10  2.0000E-10  1.0000E-10  1.0000E-10  2.0000E-10  5.0000E-10   0.000    
   9    0.000      5.0000E-10  5.0000E-10  2.0000E-10  2.0000E-10  1.0000E-10  1.0000E-10  2.0000E-10  5.0000E-10   0.000    
  10    0.000      5.0000E-10  5.0000E-10  2.0000E-10  2.0000E-10  1.0000E-10  1.0000E-10  2.0000E-10  5.0000E-10  8.0000E-10
  11    0.000      1.0000E-10  1.0000E-10  1.0000E-10  1.0000E-10  1.0000E-10  1.0000E-10  2.0000E-10  5.0000E-10   0.000    
  12   1.0000E-10  1.0000E-10  1.0000E-10  1.0000E-10  1.0000E-10  1.0000E-10  1.0000E-10  1.0000E-10  2.0000E-10   0.000    
  13   1.0000E-10  1.0000E-10  2.0000E-10  2.0000E-10  2.0000E-10  2.0000E-10  2.0000E-10  1.0000E-10  1.0000E-10   0.000    
  14    0.000      2.0000E-10  5.0000E-10  5.0000E-10  5.0000E-10  5.0000E-10  5.0000E-10  2.0000E-10  1.0000E-10   0.000    
  15    0.000       0.000      8.0000E-10  8.0000E-10  8.0000E-10  8.0000E-10   0.000       0.000       0.000       0.000    

                  ET RATE =  5.000000E-10

 USING ET EXTINCTION DEPTH FROM PREVIOUS STRESS PERIOD. CURRENT PERIOD IS:      28

 USING EXTINCTION WATER CONTENT FROM PREVIOUS STRESS PERIOD. CURRENT PERIOD IS:      28

 USING AIR ENTRY PRESSURE FROM PREVIOUS STRESS PERIOD. CURRENT PERIOD IS:      28

 USING ROOT PRESSURE HEAD FROM PREVIOUS STRESS PERIOD. CURRENT PERIOD IS:      28

 USING ROOT ACTIVITY FROM PREVIOUS STRESS PERIOD. CURRENT PERIOD IS:      28

 PROCESSING AG STRESS PERIOD DATA

 READING AG STRESS PERIOD DATA

 READING IRRIGATION WELL

 END PROCESSING AG STRESS PERIOD DATA OPTIONS
 
 SOLVING FOR HEAD 
                                                   Max.-Head-Change                         Max.-Flux-Residual
  Residual-Control   Outer-Iter.   Inner-Iter.     Column Row Layer    Maximum-Head-Change  Column Row Layer    Maximum-Flux-Residual          L2-NORM 
          0                 1           2             4    7     1       0.1130993772E-01       4    7    1         0.5919023216E+00      0.1648563854E+01
          0                 2           2             4    7     1      -0.1099553775E-02       4    7    1        -0.5915812245E-01      0.1648051302E+00
          0                 3           1             4    7     1       0.7481906201E-04       4    7    1         0.4137933163E-02      0.1153138843E-01

    ------------------------------------------------
       NWT REQUIRED            3 OUTER ITERATIONS 
       AND A TOTAL OF          5 INNER ITERATIONS.
    ------------------------------------------------

 NO OUTPUT CONTROL FOR STRESS PERIOD   28   TIME STEP    1
 
 SOLVING FOR HEAD 
                                                   Max.-Head-Change                         Max.-Flux-Residual
  Residual-Control   Outer-Iter.   Inner-Iter.     Column Row Layer    Maximum-Head-Change  Column Row Layer    Maximum-Flux-Residual          L2-NORM 
          0                 1           2             4    7     1       0.1122898672E-01       4    7    1         0.5876512069E+00      0.1639071303E+01
          0                 2           2             4    7     1      -0.1091683679E-02       4    7    1        -0.5873323939E-01      0.1638562988E+00
          0                 3           1             4    7     1       0.7428354140E-04       4    7    1         0.4108213805E-02      0.1146501902E-01

    ------------------------------------------------
       NWT REQUIRED            3 OUTER ITERATIONS 
       AND A TOTAL OF          5 INNER ITERATIONS.
    ------------------------------------------------

 NO OUTPUT CONTROL FOR STRESS PERIOD   28   TIME STEP    2
 
 SOLVING FOR HEAD 
                                                   Max.-Head-Change                         Max.-Flux-Residual
  Residual-Control   Outer-Iter.   Inner-Iter.     Column Row Layer    Maximum-Head-Change  Column Row Layer    Maximum-Flux-Residual          L2-NORM 
          0                 1           2             4    7     1       0.1114878692E-01       4    7    1         0.5834393186E+00      0.1629676097E+01
          0                 2           2             4    7     1      -0.1083886615E-02       4    7    1        -0.5831227687E-01      0.1629171675E+00
          0                 3           1             4    7     1       0.7375299057E-04       4    7    1         0.4078768671E-02      0.1139930711E-01

    ------------------------------------------------
       NWT REQUIRED            3 OUTER ITERATIONS 
       AND A TOTAL OF          5 INNER ITERATIONS.
    ------------------------------------------------

 NO OUTPUT CONTROL FOR STRESS PERIOD   28   TIME STEP    3
 
 SOLVING FOR HEAD 
                                                   Max.-Head-Change                         Max.-Flux-Residual
  Residual-Control   Outer-Iter.   Inner-Iter.     Column Row Layer    Maximum-Head-Change  Column Row Layer    Maximum-Flux-Residual          L2-NORM 
          0                 1           2             4    7     1       0.1106946232E-01       4    7    1         0.5792737217E+00      0.1620373574E+01
          0                 2           2             4    7     1      -0.1076174640E-02       4    7    1        -0.5789594107E-01      0.1619873166E+00
          0                 3           1             4    7     1       0.7322822912E-04       4    7    1         0.4049647170E-02      0.1133425638E-01

    ------------------------------------------------
       NWT REQUIRED            3 OUTER ITERATIONS 
       AND A TOTAL OF          5 INNER ITERATIONS.
    ------------------------------------------------

 NO OUTPUT CONTROL FOR STRESS PERIOD   28   TIME STEP    4
 
 SOLVING FOR HEAD 
                                                   Max.-Head-Change                         Max.-Flux-Residual
  Residual-Control   Outer-Iter.   Inner-Iter.     Column Row Layer    Maximum-Head-Change  Column Row Layer    Maximum-Flux-Residual          L2-NORM 
          0                 1           2             4    7     1       0.1099099957E-01       4    7    1         0.5751535030E+00      0.1611161693E+01
          0                 2           2             4    7     1      -0.1068546454E-02       4    7    1        -0.5748414065E-01      0.1610665224E+00
          0                 3           1             4    7     1       0.7270916926E-04       4    7    1         0.4020842910E-02      0.1126983909E-01

    ------------------------------------------------
       NWT REQUIRED            3 OUTER ITERATIONS 
       AND A TOTAL OF          5 INNER ITERATIONS.
    ------------------------------------------------

 NO OUTPUT CONTROL FOR STRESS PERIOD   28   TIME STEP    5
 
 SOLVING FOR HEAD 
                                                   Max.-Head-Change                         Max.-Flux-Residual
  Residual-Control   Outer-Iter.   Inner-Iter.     Column Row Layer    Maximum-Head-Change  Column Row Layer    Maximum-Flux-Residual          L2-NORM 
          0                 1           2             4    7     1       0.1091338055E-01       4    7    1         0.5710779689E+00      0.1602042795E+01
          0                 2           2             4    7     1      -0.1061000297E-02       4    7    1        -0.5707680635E-01      0.1601550432E+00
          0                 3           1             4    7     1       0.7219569145E-04       4    7    1         0.3992351048E-02      0.1120606939E-01

    ------------------------------------------------
       NWT REQUIRED            3 OUTER ITERATIONS 
       AND A TOTAL OF          5 INNER ITERATIONS.
    ------------------------------------------------

 NO OUTPUT CONTROL FOR STRESS PERIOD   28   TIME STEP    6
 
 SOLVING FOR HEAD 
                                                   Max.-Head-Change                         Max.-Flux-Residual
  Residual-Control   Outer-Iter.   Inner-Iter.     Column Row Layer    Maximum-Head-Change  Column Row Layer    Maximum-Flux-Residual          L2-NORM 
          0                 1           2             4    7     1       0.1083659526E-01       4    7    1         0.5670461816E+00      0.1593016564E+01
          0                 2           2             4    7     1      -0.1053535195E-02       4    7    1        -0.5667384440E-01      0.1592527837E+00
          0                 3           1             4    7     1       0.7168772836E-04       4    7    1         0.3964165008E-02      0.1114294191E-01

    ------------------------------------------------
       NWT REQUIRED            3 OUTER ITERATIONS 
       AND A TOTAL OF          5 INNER ITERATIONS.
    ------------------------------------------------

 NO OUTPUT CONTROL FOR STRESS PERIOD   28   TIME STEP    7
 
 SOLVING FOR HEAD 
                                                   Max.-Head-Change                         Max.-Flux-Residual
  Residual-Control   Outer-Iter.   Inner-Iter.     Column Row Layer    Maximum-Head-Change  Column Row Layer    Maximum-Flux-Residual          L2-NORM 
          0                 1           2             4    7     1       0.1076049586E-01       4    7    1         0.5630502770E+00      0.1584075114E+01
          0                 2           2             4    7     1      -0.1046136775E-02       4    7    1        -0.5627446880E-01      0.1583590139E+00
          0                 3           1             4    7     1       0.7118430301E-04       4    7    1         0.3936229814E-02      0.1108041367E-01

    ------------------------------------------------
       NWT REQUIRED            3 OUTER ITERATIONS 
       AND A TOTAL OF          5 INNER ITERATIONS.
    ------------------------------------------------

 NO OUTPUT CONTROL FOR STRESS PERIOD   28   TIME STEP    8
 
 SOLVING FOR HEAD 
                                                   Max.-Head-Change                         Max.-Flux-Residual
  Residual-Control   Outer-Iter.   Inner-Iter.     Column Row Layer    Maximum-Head-Change  Column Row Layer    Maximum-Flux-Residual          L2-NORM 
          0                 1           2             4    7     1       0.1068521100E-01       4    7    1         0.5590972788E+00      0.1575224671E+01
          0                 2           2             4    7     1      -0.1038817547E-02       4    7    1        -0.5587938156E-01      0.1574743341E+00
          0                 3           1             4    7     1       0.7068626624E-04       4    7    1         0.3908594596E-02      0.1101851681E-01

    ------------------------------------------------
       NWT REQUIRED            3 OUTER ITERATIONS 
       AND A TOTAL OF          5 INNER ITERATIONS.
    ------------------------------------------------

 NO OUTPUT CONTROL FOR STRESS PERIOD   28   TIME STEP    9
 
 SOLVING FOR HEAD 
                                                   Max.-Head-Change                         Max.-Flux-Residual
  Residual-Control   Outer-Iter.   Inner-Iter.     Column Row Layer    Maximum-Head-Change  Column Row Layer    Maximum-Flux-Residual          L2-NORM 
          0                 1           2             4    7     1       0.1061086174E-01       4    7    1         0.5551938579E+00      0.1566466048E+01
          0                 2           2             4    7     1      -0.1031589279E-02       4    7    1        -0.5548924944E-01      0.1565988494E+00
          0                 3           1             4    7     1       0.7019441859E-04       4    7    1         0.3881305966E-02      0.1095728660E-01

    ------------------------------------------------
       NWT REQUIRED            3 OUTER ITERATIONS 
       AND A TOTAL OF          5 INNER ITERATIONS.
    ------------------------------------------------

 NO OUTPUT CONTROL FOR STRESS PERIOD   28   TIME STEP   10
 
 SOLVING FOR HEAD 
                                                   Max.-Head-Change                         Max.-Flux-Residual
  Residual-Control   Outer-Iter.   Inner-Iter.     Column Row Layer    Maximum-Head-Change  Column Row Layer    Maximum-Flux-Residual          L2-NORM 
          0                 1           2             4    7     1       0.1053715697E-01       4    7    1         0.5513242573E+00      0.1557781334E+01
          0                 2           2             4    7     1      -0.1024423667E-02       4    7    1        -0.5510249753E-01      0.1557307751E+00
          0                 3           1             4    7     1       0.6970683449E-04       4    7    1         0.3854253764E-02      0.1089655208E-01

    ------------------------------------------------
       NWT REQUIRED            3 OUTER ITERATIONS 
       AND A TOTAL OF          5 INNER ITERATIONS.
    ------------------------------------------------

 NO OUTPUT CONTROL FOR STRESS PERIOD   28   TIME STEP   11
 
 SOLVING FOR HEAD 
                                                   Max.-Head-Change                         Max.-Flux-Residual
  Residual-Control   Outer-Iter.   Inner-Iter.     Column Row Layer    Maximum-Head-Change  Column Row Layer    Maximum-Flux-Residual          L2-NORM 
          0                 1           2             4    7     1       0.1046422786E-01       4    7    1         0.5474954163E+00      0.1549190494E+01
          0                 2           2             4    7     1      -0.1017333467E-02       4    7    1        -0.5471981940E-01      0.1548720422E+00
          0                 3           1             4    7     1       0.6922438194E-04       4    7    1         0.3827486528E-02      0.1083647153E-01

    ------------------------------------------------
       NWT REQUIRED            3 OUTER ITERATIONS 
       AND A TOTAL OF          5 INNER ITERATIONS.
    ------------------------------------------------

 NO OUTPUT CONTROL FOR STRESS PERIOD   28   TIME STEP   12
 
 SOLVING FOR HEAD 
                                                   Max.-Head-Change                         Max.-Flux-Residual
  Residual-Control   Outer-Iter.   Inner-Iter.     Column Row Layer    Maximum-Head-Change  Column Row Layer    Maximum-Flux-Residual          L2-NORM 
          0                 1           2             4    7     1       0.1039206150E-01       4    7    1         0.5437067926E+00      0.1540678640E+01
          0                 2           2             4    7     1      -0.1010317422E-02       4    7    1        -0.5434116086E-01      0.1540212117E+00
          0                 3           1             4    7     1       0.6874697539E-04       4    7    1         0.3801000460E-02      0.1077694872E-01

    ------------------------------------------------
       NWT REQUIRED            3 OUTER ITERATIONS 
       AND A TOTAL OF          5 INNER ITERATIONS.
    ------------------------------------------------

 NO OUTPUT CONTROL FOR STRESS PERIOD   28   TIME STEP   13
 
 SOLVING FOR HEAD 
                                                   Max.-Head-Change                         Max.-Flux-Residual
  Residual-Control   Outer-Iter.   Inner-Iter.     Column Row Layer    Maximum-Head-Change  Column Row Layer    Maximum-Flux-Residual          L2-NORM 
          0                 1           2             4    7     1       0.1032051003E-01       4    7    1         0.5399503711E+00      0.1532248499E+01
          0                 2           2             4    7     1      -0.1003361156E-02       4    7    1        -0.5396572084E-01      0.1531785350E+00
          0                 3           1             4    7     1       0.6827363606E-04       4    7    1         0.3774739493E-02      0.1071800066E-01

    ------------------------------------------------
       NWT REQUIRED            3 OUTER ITERATIONS 
       AND A TOTAL OF          5 INNER ITERATIONS.
    ------------------------------------------------

 NO OUTPUT CONTROL FOR STRESS PERIOD   28   TIME STEP   14
 
 SOLVING FOR HEAD 
                                                   Max.-Head-Change                         Max.-Flux-Residual
  Residual-Control   Outer-Iter.   Inner-Iter.     Column Row Layer    Maximum-Head-Change  Column Row Layer    Maximum-Flux-Residual          L2-NORM 
          0                 1           2             4    7     1       0.1024983709E-01       4    7    1         0.5362405204E+00      0.1523900753E+01
          0                 2           2             4    7     1      -0.9964903022E-03       4    7    1        -0.5359493546E-01      0.1523441445E+00
          0                 3           1             4    7     1       0.6780610896E-04       4    7    1         0.3748804119E-02      0.1065963695E-01

    ------------------------------------------------
       NWT REQUIRED            3 OUTER ITERATIONS 
       AND A TOTAL OF          5 INNER ITERATIONS.
    ------------------------------------------------

 NO OUTPUT CONTROL FOR STRESS PERIOD   28   TIME STEP   15
 
 SOLVING FOR HEAD 
                                                   Max.-Head-Change                         Max.-Flux-Residual
  Residual-Control   Outer-Iter.   Inner-Iter.     Column Row Layer    Maximum-Head-Change  Column Row Layer    Maximum-Flux-Residual          L2-NORM 
          0                 1           2             4    7     1       0.1017989255E-01       4    7    1         0.5325688747E+00      0.1515636659E+01
          0                 2           2             4    7     1      -0.9896902640E-03       4    7    1        -0.5322796851E-01      0.1515180664E+00
          0                 3           1             4    7     1       0.6734340041E-04       4    7    1         0.3723135825E-02      0.1060184484E-01

    ------------------------------------------------
       NWT REQUIRED            3 OUTER ITERATIONS 
       AND A TOTAL OF          5 INNER ITERATIONS.
    ------------------------------------------------

 NO OUTPUT CONTROL FOR STRESS PERIOD   28   TIME STEP   16
 
 SOLVING FOR HEAD 
                                                   Max.-Head-Change                         Max.-Flux-Residual
  Residual-Control   Outer-Iter.   Inner-Iter.     Column Row Layer    Maximum-Head-Change  Column Row Layer    Maximum-Flux-Residual          L2-NORM 
          0                 1           2             4    7     1       0.1011066572E-01       4    7    1         0.5289349957E+00      0.1507453726E+01
          0                 2           2             4    7     1      -0.9829600023E-03       4    7    1        -0.5286477622E-01      0.1507001301E+00
          0                 3           1             4    7     1       0.6688543988E-04       4    7    1         0.3697731582E-02      0.1054462233E-01

    ------------------------------------------------
       NWT REQUIRED            3 OUTER ITERATIONS 
       AND A TOTAL OF          5 INNER ITERATIONS.
    ------------------------------------------------

 NO OUTPUT CONTROL FOR STRESS PERIOD   28   TIME STEP   17
 
 SOLVING FOR HEAD 
                                                   Max.-Head-Change                         Max.-Flux-Residual
  Residual-Control   Outer-Iter.   Inner-Iter.     Column Row Layer    Maximum-Head-Change  Column Row Layer    Maximum-Flux-Residual          L2-NORM 
          0                 1           2             4    7     1       0.1004200879E-01       4    7    1         0.5253309832E+00      0.1499343608E+01
          0                 2           2             4    7     1      -0.9762851461E-03       4    7    1        -0.5250456899E-01      0.1498894428E+00
          0                 3           1             4    7     1       0.6643124943E-04       4    7    1         0.3672536116E-02      0.1048788807E-01

    ------------------------------------------------
       NWT REQUIRED            3 OUTER ITERATIONS 
       AND A TOTAL OF          5 INNER ITERATIONS.
    ------------------------------------------------

 NO OUTPUT CONTROL FOR STRESS PERIOD   28   TIME STEP   18
 
 SOLVING FOR HEAD 
                                                   Max.-Head-Change                         Max.-Flux-Residual
  Residual-Control   Outer-Iter.   Inner-Iter.     Column Row Layer    Maximum-Head-Change  Column Row Layer    Maximum-Flux-Residual          L2-NORM 
          0                 1           2             4    7     1       0.9974187485E-02       4    7    1         0.5217712099E+00      0.1491311473E+01
          0                 2           2             4    7     1      -0.9696915309E-03       4    7    1        -0.5214878334E-01      0.1490865809E+00
          0                 3           1             4    7     1       0.6598258696E-04       4    7    1         0.3647649931E-02      0.1043173800E-01

    ------------------------------------------------
       NWT REQUIRED            3 OUTER ITERATIONS 
       AND A TOTAL OF          5 INNER ITERATIONS.
    ------------------------------------------------

 NO OUTPUT CONTROL FOR STRESS PERIOD   28   TIME STEP   19
 
 SOLVING FOR HEAD 
                                                   Max.-Head-Change                         Max.-Flux-Residual
  Residual-Control   Outer-Iter.   Inner-Iter.     Column Row Layer    Maximum-Head-Change  Column Row Layer    Maximum-Flux-Residual          L2-NORM 
          0                 1           2             4    7     1       0.9906917253E-02       4    7    1         0.5182400712E+00      0.1483362281E+01
          0                 2           2             4    7     1      -0.9631514911E-03       4    7    1        -0.5179585961E-01      0.1482919946E+00
          0                 3           1             4    7     1       0.6553756997E-04       4    7    1         0.3622963931E-02      0.1037615446E-01

    ------------------------------------------------
       NWT REQUIRED            3 OUTER ITERATIONS 
       AND A TOTAL OF          5 INNER ITERATIONS.
    ------------------------------------------------

 NO OUTPUT CONTROL FOR STRESS PERIOD   28   TIME STEP   20
 
 SOLVING FOR HEAD 
                                                   Max.-Head-Change                         Max.-Flux-Residual
  Residual-Control   Outer-Iter.   Inner-Iter.     Column Row Layer    Maximum-Head-Change  Column Row Layer    Maximum-Flux-Residual          L2-NORM 
          0                 1           2             4    7     1       0.9840459602E-02       4    7    1         0.5147521965E+00      0.1475479516E+01
          0                 2           2             4    7     1      -0.9566904512E-03       4    7    1        -0.5144725999E-01      0.1475040113E+00
          0                 3           1             4    7     1       0.6509792854E-04       4    7    1         0.3598580378E-02      0.1032100242E-01

    ------------------------------------------------
       NWT REQUIRED            3 OUTER ITERATIONS 
       AND A TOTAL OF          5 INNER ITERATIONS.
    ------------------------------------------------

 NO OUTPUT CONTROL FOR STRESS PERIOD   28   TIME STEP   21
 
 SOLVING FOR HEAD 
                                                   Max.-Head-Change                         Max.-Flux-Residual
  Residual-Control   Outer-Iter.   Inner-Iter.     Column Row Layer    Maximum-Head-Change  Column Row Layer    Maximum-Flux-Residual          L2-NORM 
          0                 1           2             4    7     1       0.9774663961E-02       4    7    1         0.5112991067E+00      0.1467675395E+01
          0                 2           2             4    7     1      -0.9502937724E-03       4    7    1        -0.5110213701E-01      0.1467239700E+00
          0                 3           1             4    7     1       0.6466266628E-04       4    7    1         0.3574440018E-02      0.1026645624E-01

    ------------------------------------------------
       NWT REQUIRED            3 OUTER ITERATIONS 
       AND A TOTAL OF          5 INNER ITERATIONS.
    ------------------------------------------------

 NO OUTPUT CONTROL FOR STRESS PERIOD   28   TIME STEP   22
 
 SOLVING FOR HEAD 
                                                   Max.-Head-Change                         Max.-Flux-Residual
  Residual-Control   Outer-Iter.   Inner-Iter.     Column Row Layer    Maximum-Head-Change  Column Row Layer    Maximum-Flux-Residual          L2-NORM 
          0                 1           2             4    7     1       0.9709389186E-02       4    7    1         0.5078729946E+00      0.1459942420E+01
          0                 2           2             4    7     1      -0.9439477321E-03       4    7    1        -0.5075971032E-01      0.1459509810E+00
          0                 3           1             4    7     1       0.6423085057E-04       4    7    1         0.3550488265E-02      0.1021236436E-01

    ------------------------------------------------
       NWT REQUIRED            3 OUTER ITERATIONS 
       AND A TOTAL OF          5 INNER ITERATIONS.
    ------------------------------------------------

 NO OUTPUT CONTROL FOR STRESS PERIOD   28   TIME STEP   23
 
 SOLVING FOR HEAD 
                                                   Max.-Head-Change                         Max.-Flux-Residual
  Residual-Control   Outer-Iter.   Inner-Iter.     Column Row Layer    Maximum-Head-Change  Column Row Layer    Maximum-Flux-Residual          L2-NORM 
          0                 1           2             4    7     1       0.9644898078E-02       4    7    1         0.5044885813E+00      0.1452284627E+01
          0                 2           2             4    7     1      -0.9376778810E-03       4    7    1        -0.5042145134E-01      0.1451855299E+00
          0                 3           1             4    7     1       0.6380421848E-04       4    7    1         0.3526828020E-02      0.1015881349E-01

    ------------------------------------------------
       NWT REQUIRED            3 OUTER ITERATIONS 
       AND A TOTAL OF          5 INNER ITERATIONS.
    ------------------------------------------------

 NO OUTPUT CONTROL FOR STRESS PERIOD   28   TIME STEP   24
 
 SOLVING FOR HEAD 
                                                   Max.-Head-Change                         Max.-Flux-Residual
  Residual-Control   Outer-Iter.   Inner-Iter.     Column Row Layer    Maximum-Head-Change  Column Row Layer    Maximum-Flux-Residual          L2-NORM 
          0                 1           2             4    7     1       0.9581040940E-02       4    7    1         0.5011374534E+00      0.1444701020E+01
          0                 2           2             4    7     1      -0.9314696649E-03       4    7    1        -0.5008651912E-01      0.1444274816E+00
          0                 3           1             4    7     1       0.6338178012E-04       4    7    1         0.3503400460E-02      0.1010577388E-01

    ------------------------------------------------
       NWT REQUIRED            3 OUTER ITERATIONS 
       AND A TOTAL OF          5 INNER ITERATIONS.
    ------------------------------------------------

 NO OUTPUT CONTROL FOR STRESS PERIOD   28   TIME STEP   25
 
 SOLVING FOR HEAD 
                                                   Max.-Head-Change                         Max.-Flux-Residual
  Residual-Control   Outer-Iter.   Inner-Iter.     Column Row Layer    Maximum-Head-Change  Column Row Layer    Maximum-Flux-Residual          L2-NORM 
          0                 1           2             4    7     1       0.9517674740E-02       4    7    1         0.4978118489E+00      0.1437183953E+01
          0                 2           2             4    7     1      -0.9253091784E-03       4    7    1        -0.4975413787E-01      0.1436761046E+00
          0                 3           1             4    7     1       0.6296259022E-04       4    7    1         0.3480151359E-02      0.1005323076E-01

    ------------------------------------------------
       NWT REQUIRED            3 OUTER ITERATIONS 
       AND A TOTAL OF          5 INNER ITERATIONS.
    ------------------------------------------------

 NO OUTPUT CONTROL FOR STRESS PERIOD   28   TIME STEP   26
 
 SOLVING FOR HEAD 
                                                   Max.-Head-Change                         Max.-Flux-Residual
  Residual-Control   Outer-Iter.   Inner-Iter.     Column Row Layer    Maximum-Head-Change  Column Row Layer    Maximum-Flux-Residual          L2-NORM 
          0                 1           2             4    7     1       0.9455065180E-02       4    7    1         0.4945263925E+00      0.1429735717E+01
          0                 2           2             4    7     1      -0.9192222524E-03       4    7    1        -0.4942576926E-01      0.1429315916E+00
          0                 3           1             4    7     1       0.6254840513E-04       4    7    1         0.3457182918E-02      0.1000114299E-01

    ------------------------------------------------
       NWT REQUIRED            3 OUTER ITERATIONS 
       AND A TOTAL OF          5 INNER ITERATIONS.
    ------------------------------------------------

 NO OUTPUT CONTROL FOR STRESS PERIOD   28   TIME STEP   27
 
 SOLVING FOR HEAD 
                                                   Max.-Head-Change                         Max.-Flux-Residual
  Residual-Control   Outer-Iter.   Inner-Iter.     Column Row Layer    Maximum-Head-Change  Column Row Layer    Maximum-Flux-Residual          L2-NORM 
          0                 1           2             4    7     1       0.9393062231E-02       4    7    1         0.4912728197E+00      0.1422361124E+01
          0                 2           2             4    7     1      -0.9131943020E-03       4    7    1        -0.4910058736E-01      0.1421944365E+00
          0                 3           1             4    7     1       0.6213823331E-04       4    7    1         0.3434437360E-02      0.9949552845E-02

    ------------------------------------------------
       NWT REQUIRED            3 OUTER ITERATIONS 
       AND A TOTAL OF          5 INNER ITERATIONS.
    ------------------------------------------------

 NO OUTPUT CONTROL FOR STRESS PERIOD   28   TIME STEP   28
 
 SOLVING FOR HEAD 
                                                   Max.-Head-Change                         Max.-Flux-Residual
  Residual-Control   Outer-Iter.   Inner-Iter.     Column Row Layer    Maximum-Head-Change  Column Row Layer    Maximum-Flux-Residual          L2-NORM 
          0                 1           2             4    7     1       0.9331657785E-02       4    7    1         0.4880506986E+00      0.1415057660E+01
          0                 2           2             4    7     1      -0.9072245384E-03       4    7    1        -0.4877854892E-01      0.1414644062E+00
          0                 3           1             4    7     1       0.6173202091E-04       4    7    1         0.3411911717E-02      0.9898495989E-02

    ------------------------------------------------
       NWT REQUIRED            3 OUTER ITERATIONS 
       AND A TOTAL OF          5 INNER ITERATIONS.
    ------------------------------------------------

 NO OUTPUT CONTROL FOR STRESS PERIOD   28   TIME STEP   29
 
 SOLVING FOR HEAD 
                                                   Max.-Head-Change                         Max.-Flux-Residual
  Residual-Control   Outer-Iter.   Inner-Iter.     Column Row Layer    Maximum-Head-Change  Column Row Layer    Maximum-Flux-Residual          L2-NORM 
          0                 1           2             4    7     1       0.9270844755E-02       4    7    1         0.4848596089E+00      0.1407819000E+01
          0                 2           2             4    7     1      -0.9013122722E-03       4    7    1        -0.4845961195E-01      0.1407408299E+00
          0                 3           1             4    7     1       0.6132972049E-04       4    7    1         0.3389602974E-02      0.9847868268E-02

    ------------------------------------------------
       NWT REQUIRED            3 OUTER ITERATIONS 
       AND A TOTAL OF          5 INNER ITERATIONS.
    ------------------------------------------------

 NO OUTPUT CONTROL FOR STRESS PERIOD   28   TIME STEP   30



 STREAM LISTING     PERIOD     28   STEP       30

 LAYER ROW COL. STREAM  RCH.  FLOW INTO     FLOW TO   FLOW OUT OF   OVRLND.     DIRECT     STREAM       STREAM     STREAM     STREAM   STREAMBED  STREAMBED
                SEG.NO.  NO.  STRM. RCH.    AQUIFER    STRM. RCH.    RUNOFF     PRECIP       ET          HEAD       DEPTH      WIDTH   CONDCTNC.   GRADIENT

   1    1    1     1     1    1.9000E+01  2.1427E-01   1.8786E+01  0.000E+00  0.000E+00  0.000E+00  1.09413E+03  1.082E+00  1.166E+01  5.249E-02  1.361E+00
   1    2    2     1     2    1.8786E+01  3.3054E-01   1.8455E+01  0.000E+00  0.000E+00  0.000E+00  1.08914E+03  1.077E+00  1.158E+01  8.107E-02  1.359E+00
   1    3    3     1     3    1.8455E+01  2.8064E-01   1.8175E+01  0.000E+00  0.000E+00  0.000E+00  1.08349E+03  1.072E+00  1.149E+01  6.892E-02  1.357E+00
   1    3    4     1     4    1.8175E+01  2.5740E-01   1.7917E+01  0.000E+00  0.000E+00  0.000E+00  1.07848E+03  1.068E+00  1.140E+01  6.328E-02  1.356E+00
   1    4    5     2     1    1.5917E+01  3.0542E-01   1.5612E+01  0.000E+00  0.000E+00  0.000E+00  1.07285E+03  9.157E-01  1.200E+01  7.800E-02  1.305E+00
   1    5    6     2     2    1.5612E+01  2.3438E-01   1.5377E+01  0.000E+00  0.000E+00  0.000E+00  1.06742E+03  9.063E-01  1.200E+01  6.000E-02  1.302E+00
   1    6    6     2     3    1.5377E+01  2.3388E-01   1.5143E+01  0.000E+00  0.000E+00  0.000E+00  1.06269E+03  8.980E-01  1.200E+01  6.000E-02  1.299E+00
   1    7    6     2     4    1.5143E+01  2.3338E-01   1.4910E+01  0.000E+00  0.000E+00  0.000E+00  1.05797E+03  8.897E-01  1.200E+01  6.000E-02  1.297E+00
   1    8    6     2     5    1.4910E+01  2.3289E-01   1.4677E+01  0.000E+00  0.000E+00  0.000E+00  1.05324E+03  8.814E-01  1.200E+01  6.000E-02  1.294E+00
   1    3    5     3     1    2.0000E+00  2.8252E-01   1.7175E+00  0.000E+00  0.000E+00  0.000E+00  1.07555E+03  1.909E+00  9.636E+00  7.227E-02  1.955E+00
   1    3    6     3     2    1.7175E+00  2.4905E-01   1.4684E+00  0.000E+00  0.000E+00  0.000E+00  1.07264E+03  1.727E+00  8.909E+00  6.682E-02  1.864E+00
   1    3    7     3     3    1.4684E+00  1.9718E-01   1.2712E+00  0.000E+00  0.000E+00  0.000E+00  1.06987E+03  1.555E+00  8.218E+00  5.547E-02  1.777E+00
   1    4    8     3     4    1.2712E+00  2.2567E-01   1.0456E+00  0.000E+00  0.000E+00  0.000E+00  1.06682E+03  1.364E+00  7.455E+00  6.709E-02  1.682E+00
   1    5    8     3     5    1.0456E+00  1.5790E-01   8.8768E-01  0.000E+00  0.000E+00  0.000E+00  1.06362E+03  1.164E+00  6.655E+00  4.991E-02  1.582E+00
   1    6    8     3     6    8.8768E-01  5.5980E-02   8.3170E-01  0.000E+00  0.000E+00  0.000E+00  1.06158E+03  1.036E+00  6.145E+00  1.844E-02  1.518E+00
   1    5   10     4     1    1.0000E+01  9.0919E-02   9.9091E+00  0.000E+00  0.000E+00  0.000E+00  1.07836E+03  6.368E-01  1.000E+01  2.500E-02  1.212E+00
   1    5    9     4     2    9.9091E+00  1.8158E-01   9.7275E+00  0.000E+00  0.000E+00  0.000E+00  1.07154E+03  6.315E-01  1.000E+01  5.000E-02  1.211E+00
   1    6    8     4     3    9.7275E+00  1.2689E-01   9.6006E+00  0.000E+00  0.000E+00  0.000E+00  1.06381E+03  6.256E-01  1.000E+01  3.500E-02  1.209E+00
   1    6    8     5     1    1.0432E+01  2.2686E-01   1.0205E+01  0.000E+00  0.000E+00  0.000E+00  1.05868E+03  6.790E-01  1.542E+01  6.166E-02  1.226E+00
   1    7    7     5     2    1.0205E+01  2.7894E-01   9.9265E+00  0.000E+00  0.000E+00  0.000E+00  1.05417E+03  6.732E-01  1.519E+01  7.594E-02  1.224E+00
   1    8    7     5     3    9.9265E+00  1.9221E-01   9.7343E+00  0.000E+00  0.000E+00  0.000E+00  1.04992E+03  6.676E-01  1.497E+01  5.241E-02  1.223E+00
   1    8    6     5     4    9.7343E+00  1.3577E-01   9.5985E+00  0.000E+00  0.000E+00  0.000E+00  1.04691E+03  6.637E-01  1.482E+01  3.706E-02  1.221E+00
   1    9    6     6     1    2.4276E+01  2.5176E-01   2.4024E+01  0.000E+00  0.000E+00  0.000E+00  1.04392E+03  1.196E+00  1.200E+01  6.000E-02  1.399E+00
   1   10    7     6     2    2.4024E+01  2.5131E-01   2.3773E+01  0.000E+00  0.000E+00  0.000E+00  1.03937E+03  1.188E+00  1.200E+01  6.000E-02  1.396E+00
   1   11    7     6     3    2.3773E+01  2.5086E-01   2.3522E+01  0.000E+00  0.000E+00  0.000E+00  1.03482E+03  1.181E+00  1.200E+01  6.000E-02  1.394E+00
   1   12    7     6     4    2.3522E+01  2.5041E-01   2.3271E+01  0.000E+00  0.000E+00  0.000E+00  1.03026E+03  1.173E+00  1.200E+01  6.000E-02  1.391E+00
   1   13    7     6     5    2.3271E+01  5.1047E-03   2.3266E+01  0.000E+00  0.000E+00  0.000E+00  1.02708E+03  1.170E+00  1.200E+01  2.400E-02  7.090E-02
   1   14    9     7     1    1.5000E+02  1.3425E+00   1.4866E+02  0.000E+00  0.000E+00  0.000E+00  1.03987E+03  2.288E+00  5.529E+01  5.593E-01  8.001E-01
   1   13    8     7     2    1.4866E+02  1.8836E+00   1.4677E+02  0.000E+00  0.000E+00  0.000E+00  1.03478E+03  2.279E+00  5.526E+01  6.148E-01  1.021E+00
   1   13    7     7     3    1.4677E+02  1.5766E+00   1.4520E+02  0.000E+00  0.000E+00  0.000E+00  1.02969E+03  2.270E+00  5.521E+01  5.584E-01  9.411E-01
   1   13    6     8     1    1.6846E+02  1.0251E+00   1.6744E+02  0.000E+00  0.000E+00  0.000E+00  1.02481E+03  2.939E+00  4.261E+01  4.342E-01  7.869E-01
   1   13    5     8     2    1.6744E+02  2.7841E-01   1.6716E+02  0.000E+00  0.000E+00  0.000E+00  1.01856E+03  2.935E+00  4.255E+01  4.336E-01  2.140E-01
   1   13    4     8     3    1.6716E+02 -2.0804E+00   1.6924E+02  0.000E+00  0.000E+00  0.000E+00  1.01232E+03  2.940E+00  4.264E+01  4.345E+00 -1.596E-01
   1   13    3     8     4    1.6924E+02 -3.4821E+00   1.7272E+02  0.000E+00  0.000E+00  0.000E+00  1.00608E+03  2.959E+00  4.290E+01  4.372E+00 -2.655E-01
   1   13    2     8     5    1.7272E+02 -2.5426E+00   1.7527E+02  0.000E+00  0.000E+00  0.000E+00  9.99853E+02  2.978E+00  4.318E+01  4.400E+00 -1.926E-01
   1   13    1     8     6    1.7527E+02 -1.9759E+00   1.7724E+02  0.000E+00  0.000E+00  0.000E+00  9.94867E+02  2.992E+00  4.339E+01  2.653E+00 -2.483E-01





UNSATURATED ZONE PACKAGE VOLUMETRIC BUDGET FOR  TIME STEP    30 STRESS PERIOD   28
  ------------------------------------------------------------------------------



     CUMULATIVE VOLUMES      L**3       RATES FOR THIS TIME STEP      L**3/T
     ------------------                 ------------------------

           IN:                                      IN:
           ---                                      ---
        INFILTRATION =  1012809733.3892          INFILTRATION =           0.8475

          OUT:                                     OUT:
          ----                                     ----
              UZF ET =   866676083.3190                UZF ET =           0.7500
        UZF RECHARGE =   144779183.7052          UZF RECHARGE =           0.0001

            IN - OUT =     1354466.3651              IN - OUT =       9.7377E-02

          STORAGE:                                 STORAGE:
          --------                                 --------
      STORAGE CHANGE =     1354478.7128        STORAGE CHANGE =       9.7377E-02

 PERCENT DISCREPANCY IS DIFFERENCE BETWEEN IN-OUT MINUS CHANGE IN STORAGE
 DIVIDED BY THE AVERAGE OF IN AND OUT TIMES 100

 PERCENT DISCREPANCY =           0.00     PERCENT DISCREPANCY =           0.00






1
  VOLUMETRIC BUDGET FOR AGRICULTURAL FIELDS AT  END OF TIME STEP   30, STRESS PERIOD  28
  ------------------------------------------------------------------------------

     CUMULATIVE VOLUMES      L**3       RATES FOR THIS TIME STEP      L**3/T
     ------------------                 ------------------------

           IN:                                      IN:
           ---                                      ---
               AG WELLS  =   952554432.0000                 AG WELLS  =           0.0000
      DIVERSION SEGMENTS =           0.0000        DIVERSION SEGMENTS =           0.0000
           GW IRRIGATION =           0.0000             GW IRRIGATION =           0.0000
           SW IRRIGATION =           0.0000             SW IRRIGATION =           0.0000
        SYSTEM LOSSES GW =           0.0000          SYSTEM LOSSES GW =           0.0000
        SYSTEM LOSSES SW =           0.0000          SYSTEM LOSSES SW =           0.0000

                TOTAL IN =   952554432.0000                  TOTAL IN =           0.0000

          OUT:                                     OUT:
          ----                                     ----
               AG WELLS  =           0.0000                 AG WELLS  =           0.0000
      DIVERSION SEGMENTS =           0.0000        DIVERSION SEGMENTS =           0.0000
           GW IRRIGATION =   952554432.0000             GW IRRIGATION =           0.0000
           SW IRRIGATION =           0.0000             SW IRRIGATION =           0.0000
        SYSTEM LOSSES GW =           0.0000          SYSTEM LOSSES GW =           0.0000
        SYSTEM LOSSES SW =           0.0000          SYSTEM LOSSES SW =           0.0000

               TOTAL OUT =   952554432.0000                 TOTAL OUT =           0.0000

                IN - OUT =           0.0000                  IN - OUT =           0.0000

     PERCENT DISCREPANCY =           0.00         PERCENT DISCREPANCY =           0.00



1
  VOLUMETRIC BUDGET FOR ENTIRE MODEL AT END OF TIME STEP   30, STRESS PERIOD  28
  ------------------------------------------------------------------------------

     CUMULATIVE VOLUMES      L**3       RATES FOR THIS TIME STEP      L**3/T
     ------------------                 ------------------------

           IN:                                      IN:
           ---                                      ---
             STORAGE     =  1261324928.0000               STORAGE     =           4.1486
       CONSTANT HEAD     =           0.0000         CONSTANT HEAD     =           0.0000
     HEAD DEP BOUNDS     =    20301460.0000       HEAD DEP BOUNDS     =           0.2862
      STREAM LEAKAGE     =   878129472.0000        STREAM LEAKAGE     =          11.8399
        UZF RECHARGE     =   144779152.0000          UZF RECHARGE     =       1.2252E-04
               GW ET     =           0.0000                 GW ET     =           0.0000
     SURFACE LEAKAGE     =           0.0000       SURFACE LEAKAGE     =           0.0000
           AG WELLS      =           0.0000             AG WELLS      =           0.0000

                TOTAL IN =  2304535040.0000                  TOTAL IN =          16.2749

          OUT:                                     OUT:
          ----                                     ----
             STORAGE     =   578529536.0000               STORAGE     =           5.9051
       CONSTANT HEAD     =           0.0000         CONSTANT HEAD     =           0.0000
     HEAD DEP BOUNDS     =    20868794.0000       HEAD DEP BOUNDS     =           0.2893
      STREAM LEAKAGE     =   735076416.0000        STREAM LEAKAGE     =          10.0810
        UZF RECHARGE     =           0.0000          UZF RECHARGE     =           0.0000
               GW ET     =    17516202.0000                 GW ET     =           0.0000
     SURFACE LEAKAGE     =           0.0000       SURFACE LEAKAGE     =           0.0000
           AG WELLS      =   952554432.0000             AG WELLS      =           0.0000

               TOTAL OUT =  2304545280.0000                 TOTAL OUT =          16.2754

                IN - OUT =      -10240.0000                  IN - OUT =      -4.9782E-04

     PERCENT DISCREPANCY =          -0.00         PERCENT DISCREPANCY =          -0.00






         TIME SUMMARY AT END OF TIME STEP   30 IN STRESS PERIOD   28
                    SECONDS     MINUTES      HOURS       DAYS        YEARS
                    -----------------------------------------------------------
   TIME STEP LENGTH  87667.      1461.1      24.352      1.0147     2.77799E-03
 STRESS PERIOD TIME 2.63000E+06  43833.      730.56      30.440     8.33397E-02
         TOTAL TIME 7.10967E+07 1.18494E+06  19749.      822.88      2.2529    
1
1
                            STRESS PERIOD NO.   29, LENGTH =   2630000.    
                            -----------------------------------------------

                              NUMBER OF TIME STEPS =    30

                               MULTIPLIER FOR DELT =     1.000

                            INITIAL TIME STEP SIZE =   87666.66    

 REUSING NON-PARAMETER GHB CELLS FROM LAST STRESS PERIOD

      2 GHB CELLS

 REUSING STREAM SEGMENT DATA FROM LAST STRESS PERIOD



            AREAL INFILTRATION RATE
 READING ON UNIT   19 WITH FORMAT: (FREE)              

            1           2           3           4           5           6           7           8           9          10
 ........................................................................................................................
   1   1.0000E-10  2.0000E-10   0.000       0.000       0.000       0.000       0.000       0.000       0.000       0.000    
   2   2.0000E-10  1.0000E-10  2.0000E-10   0.000       0.000      8.0000E-10  8.0000E-10  5.0000E-10   0.000       0.000    
   3    0.000      5.0000E-10  1.0000E-10  1.0000E-10  8.0000E-10  8.0000E-10  5.0000E-10  5.0000E-10   0.000       0.000    
   4   8.0000E-10  5.0000E-10  1.0000E-10  1.0000E-10  1.0000E-10  1.0000E-10  1.0000E-10  1.0000E-10  2.0000E-10   0.000    
   5   8.0000E-10  5.0000E-10  1.0000E-10  1.0000E-10  1.0000E-10  1.0000E-10  1.0000E-10  1.0000E-10  1.0000E-10  1.0000E-10
   6   8.0000E-10  5.0000E-10  5.0000E-10  2.0000E-10  2.0000E-10  1.0000E-10  1.0000E-10  1.0000E-10  1.0000E-10  5.0000E-10
   7   8.0000E-10  5.0000E-10  5.0000E-10  2.0000E-10  2.0000E-10  1.0000E-10  1.0000E-10  2.0000E-10  2.0000E-10   0.000    
   8    0.000      5.0000E-10  5.0000E-10  2.0000E-10  2.0000E-10  1.0000E-10  1.0000E-10  2.0000E-10  5.0000E-10   0.000    
   9    0.000      5.0000E-10  5.0000E-10  2.0000E-10  2.0000E-10  1.0000E-10  1.0000E-10  2.0000E-10  5.0000E-10   0.000    
  10    0.000      5.0000E-10  5.0000E-10  2.0000E-10  2.0000E-10  1.0000E-10  1.0000E-10  2.0000E-10  5.0000E-10  8.0000E-10
  11    0.000      1.0000E-10  1.0000E-10  1.0000E-10  1.0000E-10  1.0000E-10  1.0000E-10  2.0000E-10  5.0000E-10   0.000    
  12   1.0000E-10  1.0000E-10  1.0000E-10  1.0000E-10  1.0000E-10  1.0000E-10  1.0000E-10  1.0000E-10  2.0000E-10   0.000    
  13   1.0000E-10  1.0000E-10  2.0000E-10  2.0000E-10  2.0000E-10  2.0000E-10  2.0000E-10  1.0000E-10  1.0000E-10   0.000    
  14    0.000      2.0000E-10  5.0000E-10  5.0000E-10  5.0000E-10  5.0000E-10  5.0000E-10  2.0000E-10  1.0000E-10   0.000    
  15    0.000       0.000      8.0000E-10  8.0000E-10  8.0000E-10  8.0000E-10   0.000       0.000       0.000       0.000    

                  ET RATE =  2.500000E-08

 USING ET EXTINCTION DEPTH FROM PREVIOUS STRESS PERIOD. CURRENT PERIOD IS:      29

 USING EXTINCTION WATER CONTENT FROM PREVIOUS STRESS PERIOD. CURRENT PERIOD IS:      29

 USING AIR ENTRY PRESSURE FROM PREVIOUS STRESS PERIOD. CURRENT PERIOD IS:      29

 USING ROOT PRESSURE HEAD FROM PREVIOUS STRESS PERIOD. CURRENT PERIOD IS:      29

 USING ROOT ACTIVITY FROM PREVIOUS STRESS PERIOD. CURRENT PERIOD IS:      29

 PROCESSING AG STRESS PERIOD DATA

 READING AG STRESS PERIOD DATA

 READING IRRIGATION WELL

 END PROCESSING AG STRESS PERIOD DATA OPTIONS
 
 SOLVING FOR HEAD 
                                                   Max.-Head-Change                         Max.-Flux-Residual
  Residual-Control   Outer-Iter.   Inner-Iter.     Column Row Layer    Maximum-Head-Change  Column Row Layer    Maximum-Flux-Residual          L2-NORM 
          0                 1           2             3    7     1       0.8321493819E-02       4    9    1         0.2757917417E+00      0.1106558122E+01
          0                 2           2             3    7     1      -0.8094545947E-03       4    9    1        -0.2757916975E-01      0.1106542706E+00
          0                 3           1             3    7     1       0.5512092749E-04       4    9    1         0.1930542764E-02      0.7745653270E-02

    ------------------------------------------------
       NWT REQUIRED            3 OUTER ITERATIONS 
       AND A TOTAL OF          5 INNER ITERATIONS.
    ------------------------------------------------

 NO OUTPUT CONTROL FOR STRESS PERIOD   29   TIME STEP    1
 
 SOLVING FOR HEAD 
                                                   Max.-Head-Change                         Max.-Flux-Residual
  Residual-Control   Outer-Iter.   Inner-Iter.     Column Row Layer    Maximum-Head-Change  Column Row Layer    Maximum-Flux-Residual          L2-NORM 
          0                 1           2             3    7     1       0.8170730161E-02       4    9    1         0.2667842224E+00      0.1077064719E+01
          0                 2           2             3    7     1      -0.7947893859E-03       4    9    1        -0.2667841821E-01      0.1077049414E+00
          0                 3           1             3    7     1       0.5412227657E-04       4    9    1         0.1867490135E-02      0.7539217711E-02

    ------------------------------------------------
       NWT REQUIRED            3 OUTER ITERATIONS 
       AND A TOTAL OF          5 INNER ITERATIONS.
    ------------------------------------------------

 NO OUTPUT CONTROL FOR STRESS PERIOD   29   TIME STEP    2
 
 SOLVING FOR HEAD 
                                                   Max.-Head-Change                         Max.-Flux-Residual
  Residual-Control   Outer-Iter.   Inner-Iter.     Column Row Layer    Maximum-Head-Change  Column Row Layer    Maximum-Flux-Residual          L2-NORM 
          0                 1           2             3    7     1       0.8022466275E-02       4    9    1         0.2581261071E+00      0.1049231378E+01
          0                 2           2             3    7     1      -0.7803673382E-03       4    9    1        -0.2581260702E-01      0.1049215443E+00
          0                 3           1             3    7     1       0.5314018402E-04       4    9    1         0.1806883297E-02      0.7344361570E-02

    ------------------------------------------------
       NWT REQUIRED            3 OUTER ITERATIONS 
       AND A TOTAL OF          5 INNER ITERATIONS.
    ------------------------------------------------

 NO OUTPUT CONTROL FOR STRESS PERIOD   29   TIME STEP    3
 
 SOLVING FOR HEAD 
                                                   Max.-Head-Change                         Max.-Flux-Residual
  Residual-Control   Outer-Iter.   Inner-Iter.     Column Row Layer    Maximum-Head-Change  Column Row Layer    Maximum-Flux-Residual          L2-NORM 
          0                 1           2             3    7     1       0.7876709723E-02       4    9    1         0.2498063454E+00      0.1022947340E+01
          0                 2           2             3    7     1      -0.7661891884E-03       4    9    1        -0.2498063117E-01      0.1022930776E+00
          0                 3           1             3    7     1       0.5217470097E-04       4    9    1         0.1748644964E-02      0.7160352361E-02

    ------------------------------------------------
       NWT REQUIRED            3 OUTER ITERATIONS 
       AND A TOTAL OF          5 INNER ITERATIONS.
    ------------------------------------------------

 NO OUTPUT CONTROL FOR STRESS PERIOD   29   TIME STEP    4
 
 SOLVING FOR HEAD 
                                                   Max.-Head-Change                         Max.-Flux-Residual
  Residual-Control   Outer-Iter.   Inner-Iter.     Column Row Layer    Maximum-Head-Change  Column Row Layer    Maximum-Flux-Residual          L2-NORM 
          0                 1           2             3    7     1       0.7733219544E-02       4    9    1         0.2418075360E+00      0.9981040107E+00
          0                 2           2             3    7     1      -0.7522314954E-03       4    9    1        -0.2418075053E-01      0.9980871066E-01
          0                 3           1             3    7     1       0.5122423023E-04       4    9    1         0.1692653299E-02      0.6986454176E-02

    ------------------------------------------------
       NWT REQUIRED            3 OUTER ITERATIONS 
       AND A TOTAL OF          5 INNER ITERATIONS.
    ------------------------------------------------

 NO OUTPUT CONTROL FOR STRESS PERIOD   29   TIME STEP    5
 
 SOLVING FOR HEAD 
                                                   Max.-Head-Change                         Max.-Flux-Residual
  Residual-Control   Outer-Iter.   Inner-Iter.     Column Row Layer    Maximum-Head-Change  Column Row Layer    Maximum-Flux-Residual          L2-NORM 
          0                 1           2             3    7     1       0.7592242918E-02       4    9    1         0.2341254333E+00      0.9746017974E+00
          0                 2           2             3    7     1      -0.7385183045E-03       4    9    1        -0.2341254057E-01      0.9745849285E-01
          0                 3           1             3    7     1       0.5029040956E-04       4    9    1         0.1638878580E-02      0.6822155166E-02

    ------------------------------------------------
       NWT REQUIRED            3 OUTER ITERATIONS 
       AND A TOTAL OF          5 INNER ITERATIONS.
    ------------------------------------------------

 NO OUTPUT CONTROL FOR STRESS PERIOD   29   TIME STEP    6
 
 SOLVING FOR HEAD 
                                                   Max.-Head-Change                         Max.-Flux-Residual
  Residual-Control   Outer-Iter.   Inner-Iter.     Column Row Layer    Maximum-Head-Change  Column Row Layer    Maximum-Flux-Residual          L2-NORM 
          0                 1           2             3    7     1       0.7453772677E-02       4    9    1         0.2267490345E+00      0.9523490031E+00
          0                 2           2             3    7     1      -0.7250489174E-03       4    9    1        -0.2267490094E-01      0.9523321869E-01
          0                 3           1             3    7     1       0.4937319117E-04       4    9    1         0.1587243766E-02      0.6666189099E-02

    ------------------------------------------------
       NWT REQUIRED            3 OUTER ITERATIONS 
       AND A TOTAL OF          5 INNER ITERATIONS.
    ------------------------------------------------

 NO OUTPUT CONTROL FOR STRESS PERIOD   29   TIME STEP    7
 
 SOLVING FOR HEAD 
                                                   Max.-Head-Change                         Max.-Flux-Residual
  Residual-Control   Outer-Iter.   Inner-Iter.     Column Row Layer    Maximum-Head-Change  Column Row Layer    Maximum-Flux-Residual          L2-NORM 
          0                 1           2             3    7     1       0.7317796231E-02       4    9    1         0.2196674380E+00      0.9312559106E+00
          0                 2           2             3    7     1      -0.7118221100E-03       4    9    1        -0.2196674153E-01      0.9312388017E-01
          0                 3           1             3    7     1       0.4847249210E-04       4    9    1         0.1537672591E-02      0.6518500307E-02

    ------------------------------------------------
       NWT REQUIRED            3 OUTER ITERATIONS 
       AND A TOTAL OF          5 INNER ITERATIONS.
    ------------------------------------------------

 NO OUTPUT CONTROL FOR STRESS PERIOD   29   TIME STEP    8
 
 SOLVING FOR HEAD 
                                                   Max.-Head-Change                         Max.-Flux-Residual
  Residual-Control   Outer-Iter.   Inner-Iter.     Column Row Layer    Maximum-Head-Change  Column Row Layer    Maximum-Flux-Residual          L2-NORM 
          0                 1           2             3    7     1       0.7184301462E-02       4    9    1         0.2128761816E+00      0.9112588105E+00
          0                 2           2             3    7     1      -0.6988367026E-03       4    9    1        -0.2128761615E-01      0.9112414017E-01
          0                 3           1             3    7     1       0.4758823118E-04       4    9    1         0.1490133802E-02      0.6378522388E-02

    ------------------------------------------------
       NWT REQUIRED            3 OUTER ITERATIONS 
       AND A TOTAL OF          5 INNER ITERATIONS.
    ------------------------------------------------

 NO OUTPUT CONTROL FOR STRESS PERIOD   29   TIME STEP    9
 
 SOLVING FOR HEAD 
                                                   Max.-Head-Change                         Max.-Flux-Residual
  Residual-Control   Outer-Iter.   Inner-Iter.     Column Row Layer    Maximum-Head-Change  Column Row Layer    Maximum-Flux-Residual          L2-NORM 
          0                 1           2             3    7     1       0.7053270981E-02       4    9    1         0.2063514943E+00      0.8922759434E+00
          0                 2           2             3    7     1      -0.6860910051E-03       4    9    1        -0.2063514765E-01      0.8922582902E-01
          0                 3           1             3    7     1       0.4672029455E-04       4    9    1         0.1444460987E-02      0.6245628734E-02

    ------------------------------------------------
       NWT REQUIRED            3 OUTER ITERATIONS 
       AND A TOTAL OF          5 INNER ITERATIONS.
    ------------------------------------------------

 NO OUTPUT CONTROL FOR STRESS PERIOD   29   TIME STEP   10
 
 SOLVING FOR HEAD 
                                                   Max.-Head-Change                         Max.-Flux-Residual
  Residual-Control   Outer-Iter.   Inner-Iter.     Column Row Layer    Maximum-Head-Change  Column Row Layer    Maximum-Flux-Residual          L2-NORM 
          0                 1           2             3    7     1       0.6924683290E-02       4    9    1         0.2000898217E+00      0.8742370004E+00
          0                 2           2             3    7     1      -0.6735829249E-03       4    9    1        -0.2000898061E-01      0.8742190840E-01
          0                 3           1             3    7     1       0.4586853869E-04       4    9    1         0.1400629262E-02      0.6119352679E-02

    ------------------------------------------------
       NWT REQUIRED            3 OUTER ITERATIONS 
       AND A TOTAL OF          5 INNER ITERATIONS.
    ------------------------------------------------

 NO OUTPUT CONTROL FOR STRESS PERIOD   29   TIME STEP   11
 
 SOLVING FOR HEAD 
                                                   Max.-Head-Change                         Max.-Flux-Residual
  Residual-Control   Outer-Iter.   Inner-Iter.     Column Row Layer    Maximum-Head-Change  Column Row Layer    Maximum-Flux-Residual          L2-NORM 
          0                 1           2             3    7     1       0.6798757275E-02       4    9    1         0.1940871578E+00      0.8570951683E+00
          0                 2           2             3    7     1      -0.6613337536E-03       4    9    1        -0.1940871445E-01      0.8570770945E-01
          0                 3           1             3    7     1       0.4503441309E-04       4    9    1         0.1358610620E-02      0.5999390869E-02

    ------------------------------------------------
       NWT REQUIRED            3 OUTER ITERATIONS 
       AND A TOTAL OF          5 INNER ITERATIONS.
    ------------------------------------------------

 NO OUTPUT CONTROL FOR STRESS PERIOD   29   TIME STEP   12
 
 SOLVING FOR HEAD 
                                                   Max.-Head-Change                         Max.-Flux-Residual
  Residual-Control   Outer-Iter.   Inner-Iter.     Column Row Layer    Maximum-Head-Change  Column Row Layer    Maximum-Flux-Residual          L2-NORM 
          0                 1           2             3    7     1       0.6674976139E-02       4    9    1         0.1883268786E+00      0.8407796564E+00
          0                 2           2             3    7     1      -0.6492932215E-03       4    9    1        -0.1883268672E-01      0.8407617558E-01
          0                 3           1             3    7     1       0.4421449594E-04       4    9    1         0.1318288654E-02      0.5885213785E-02

    ------------------------------------------------
       NWT REQUIRED            3 OUTER ITERATIONS 
       AND A TOTAL OF          5 INNER ITERATIONS.
    ------------------------------------------------

 NO OUTPUT CONTROL FOR STRESS PERIOD   29   TIME STEP   13
 
 SOLVING FOR HEAD 
                                                   Max.-Head-Change                         Max.-Flux-Residual
  Residual-Control   Outer-Iter.   Inner-Iter.     Column Row Layer    Maximum-Head-Change  Column Row Layer    Maximum-Flux-Residual          L2-NORM 
          0                 1           2             3    7     1       0.6553558567E-02       4    9    1         0.1827992272E+00      0.8252493493E+00
          0                 2           2             3    7     1      -0.6374826001E-03       4    9    1        -0.1827992180E-01      0.8252308585E-01
          0                 3           1             3    7     1       0.4341023472E-04       4    9    1         0.1279595083E-02      0.5776441731E-02

    ------------------------------------------------
       NWT REQUIRED            3 OUTER ITERATIONS 
       AND A TOTAL OF          5 INNER ITERATIONS.
    ------------------------------------------------

 NO OUTPUT CONTROL FOR STRESS PERIOD   29   TIME STEP   14
 
 SOLVING FOR HEAD 
                                                   Max.-Head-Change                         Max.-Flux-Residual
  Residual-Control   Outer-Iter.   Inner-Iter.     Column Row Layer    Maximum-Head-Change  Column Row Layer    Maximum-Flux-Residual          L2-NORM 
          0                 1           2             3    7     1       0.6434721025E-02       4    9    1         0.1775012170E+00      0.8104543603E+00
          0                 2           2             3    7     1      -0.6259229464E-03       4    9    1        -0.1775012094E-01      0.8104361657E-01
          0                 3           1             3    7     1       0.4262306415E-04       4    9    1         0.1242509010E-02      0.5672869779E-02

    ------------------------------------------------
       NWT REQUIRED            3 OUTER ITERATIONS 
       AND A TOTAL OF          5 INNER ITERATIONS.
    ------------------------------------------------

 NO OUTPUT CONTROL FOR STRESS PERIOD   29   TIME STEP   15
 
 SOLVING FOR HEAD 
                                                   Max.-Head-Change                         Max.-Flux-Residual
  Residual-Control   Outer-Iter.   Inner-Iter.     Column Row Layer    Maximum-Head-Change  Column Row Layer    Maximum-Flux-Residual          L2-NORM 
          0                 1           2             3    7     1       0.6318181145E-02       4    9    1         0.1724231623E+00      0.7963493569E+00
          0                 2           2             3    7     1      -0.6145867921E-03       4    9    1        -0.1724231567E-01      0.7963311950E-01
          0                 3           1             3    7     1       0.4185111262E-04       4    9    1         0.1206962630E-02      0.5574167700E-02

    ------------------------------------------------
       NWT REQUIRED            3 OUTER ITERATIONS 
       AND A TOTAL OF          5 INNER ITERATIONS.
    ------------------------------------------------

 NO OUTPUT CONTROL FOR STRESS PERIOD   29   TIME STEP   16
 
 SOLVING FOR HEAD 
                                                   Max.-Head-Change                         Max.-Flux-Residual
  Residual-Control   Outer-Iter.   Inner-Iter.     Column Row Layer    Maximum-Head-Change  Column Row Layer    Maximum-Flux-Residual          L2-NORM 
          0                 1           2             3    7     1       0.6203905429E-02       4    9    1         0.1675495609E+00      0.7828793225E+00
          0                 2           2             3    7     1      -0.6034708803E-03       4    9    1        -0.1675495570E-01      0.7828609850E-01
          0                 3           1             3    7     1       0.4109415907E-04       4    9    1         0.1172847405E-02      0.5479874411E-02

    ------------------------------------------------
       NWT REQUIRED            3 OUTER ITERATIONS 
       AND A TOTAL OF          5 INNER ITERATIONS.
    ------------------------------------------------

 NO OUTPUT CONTROL FOR STRESS PERIOD   29   TIME STEP   17
 
 SOLVING FOR HEAD 
                                                   Max.-Head-Change                         Max.-Flux-Residual
  Residual-Control   Outer-Iter.   Inner-Iter.     Column Row Layer    Maximum-Head-Change  Column Row Layer    Maximum-Flux-Residual          L2-NORM 
          0                 1           2             3    7     1       0.6091861991E-02       4    9    1         0.1628717897E+00      0.7700315350E+00
          0                 2           2             3    7     1      -0.5925721084E-03       4    9    1        -0.1628717875E-01      0.7700133106E-01
          0                 3           1             3    7     1       0.4035199193E-04       4    9    1         0.1140103007E-02      0.5389967540E-02

    ------------------------------------------------
       NWT REQUIRED            3 OUTER ITERATIONS 
       AND A TOTAL OF          5 INNER ITERATIONS.
    ------------------------------------------------

 NO OUTPUT CONTROL FOR STRESS PERIOD   29   TIME STEP   18
 
 SOLVING FOR HEAD 
                                                   Max.-Head-Change                         Max.-Flux-Residual
  Residual-Control   Outer-Iter.   Inner-Iter.     Column Row Layer    Maximum-Head-Change  Column Row Layer    Maximum-Flux-Residual          L2-NORM 
          0                 1           2             3    7     1       0.5982255681E-02       3    7    1         0.1585176976E+00      0.7577572681E+00
          0                 2           2             3    7     1      -0.5819104028E-03       3    7    1        -0.1585177159E-01      0.7577388299E-01
          0                 3           1             3    7     1       0.3962596850E-04       3    7    1         0.1109624473E-02      0.5304035496E-02

    ------------------------------------------------
       NWT REQUIRED            3 OUTER ITERATIONS 
       AND A TOTAL OF          5 INNER ITERATIONS.
    ------------------------------------------------

 NO OUTPUT CONTROL FOR STRESS PERIOD   29   TIME STEP   19
 
 SOLVING FOR HEAD 
                                                   Max.-Head-Change                         Max.-Flux-Residual
  Residual-Control   Outer-Iter.   Inner-Iter.     Column Row Layer    Maximum-Head-Change  Column Row Layer    Maximum-Flux-Residual          L2-NORM 
          0                 1           2             3    7     1       0.5874802524E-02       3    7    1         0.1556632688E+00      0.7460141412E+00
          0                 2           2             3    7     1      -0.5714581408E-03       3    7    1        -0.1556632872E-01      0.7459956472E-01
          0                 3           1             3    7     1       0.3891420713E-04       3    7    1         0.1089643462E-02      0.5221805989E-02

    ------------------------------------------------
       NWT REQUIRED            3 OUTER ITERATIONS 
       AND A TOTAL OF          5 INNER ITERATIONS.
    ------------------------------------------------

 NO OUTPUT CONTROL FOR STRESS PERIOD   29   TIME STEP   20
 
 SOLVING FOR HEAD 
                                                   Max.-Head-Change                         Max.-Flux-Residual
  Residual-Control   Outer-Iter.   Inner-Iter.     Column Row Layer    Maximum-Head-Change  Column Row Layer    Maximum-Flux-Residual          L2-NORM 
          0                 1           2             3    7     1       0.5769706942E-02       9    5    1        -0.1549220202E+00      0.7347836061E+00
          0                 2           2             3    7     1      -0.5612352065E-03       9    5    1         0.1549218890E-01      0.7347648147E-01
          0                 3           1             3    7     1       0.3821806240E-04       9    5    1        -0.1084453806E-02      0.5143200038E-02

    ------------------------------------------------
       NWT REQUIRED            3 OUTER ITERATIONS 
       AND A TOTAL OF          5 INNER ITERATIONS.
    ------------------------------------------------

 NO OUTPUT CONTROL FOR STRESS PERIOD   29   TIME STEP   21
 
 SOLVING FOR HEAD 
                                                   Max.-Head-Change                         Max.-Flux-Residual
  Residual-Control   Outer-Iter.   Inner-Iter.     Column Row Layer    Maximum-Head-Change  Column Row Layer    Maximum-Flux-Residual          L2-NORM 
          0                 1           2             3    7     1       0.5666683272E-02       9    5    1        -0.1544244022E+00      0.7240354969E+00
          0                 2           2             3    7     1      -0.5512138128E-03       9    5    1         0.1544242718E-01      0.7240164500E-01
          0                 3           1             3    7     1       0.3753564129E-04       9    5    1        -0.1080970490E-02      0.5067963300E-02

    ------------------------------------------------
       NWT REQUIRED            3 OUTER ITERATIONS 
       AND A TOTAL OF          5 INNER ITERATIONS.
    ------------------------------------------------

 NO OUTPUT CONTROL FOR STRESS PERIOD   29   TIME STEP   22
 
 SOLVING FOR HEAD 
                                                   Max.-Head-Change                         Max.-Flux-Residual
  Residual-Control   Outer-Iter.   Inner-Iter.     Column Row Layer    Maximum-Head-Change  Column Row Layer    Maximum-Flux-Residual          L2-NORM 
          0                 1           2             3    7     1       0.5565691928E-02       9    5    1        -0.1539269242E+00      0.7137443836E+00
          0                 2           2             3    7     1      -0.5413901096E-03       9    5    1         0.1539267941E-01      0.7137256428E-01
          0                 3           1             3    7     1       0.3686668334E-04       9    5    1        -0.1077488142E-02      0.4995896293E-02

    ------------------------------------------------
       NWT REQUIRED            3 OUTER ITERATIONS 
       AND A TOTAL OF          5 INNER ITERATIONS.
    ------------------------------------------------

 NO OUTPUT CONTROL FOR STRESS PERIOD   29   TIME STEP   23
 
 SOLVING FOR HEAD 
                                                   Max.-Head-Change                         Max.-Flux-Residual
  Residual-Control   Outer-Iter.   Inner-Iter.     Column Row Layer    Maximum-Head-Change  Column Row Layer    Maximum-Flux-Residual          L2-NORM 
          0                 1           2             3    7     1       0.5466940457E-02       9    5    1        -0.1534296642E+00      0.7038702763E+00
          0                 2           2             3    7     1      -0.5263140982E-03       9    5    1         0.1534295345E-01      0.7032739901E-01
          0                 3           1             3    7     1       0.3584005043E-04       9    5    1        -0.1074007331E-02      0.4922758506E-02

    ------------------------------------------------
       NWT REQUIRED            3 OUTER ITERATIONS 
       AND A TOTAL OF          5 INNER ITERATIONS.
    ------------------------------------------------

 NO OUTPUT CONTROL FOR STRESS PERIOD   29   TIME STEP   24
 
 SOLVING FOR HEAD 
                                                   Max.-Head-Change                         Max.-Flux-Residual
  Residual-Control   Outer-Iter.   Inner-Iter.     Column Row Layer    Maximum-Head-Change  Column Row Layer    Maximum-Flux-Residual          L2-NORM 
          0                 1           2             3    7     1       0.5383848237E-02       9    5    1        -0.1529326041E+00      0.6944590981E+00
          0                 2           2             3    7     1      -0.5237026745E-03       9    5    1         0.1529324752E-01      0.6944405720E-01
          0                 3           1             3    7     1       0.3566222170E-04       9    5    1        -0.1070527904E-02      0.4860915969E-02

    ------------------------------------------------
       NWT REQUIRED            3 OUTER ITERATIONS 
       AND A TOTAL OF          5 INNER ITERATIONS.
    ------------------------------------------------

 NO OUTPUT CONTROL FOR STRESS PERIOD   29   TIME STEP   25
 
 SOLVING FOR HEAD 
                                                   Max.-Head-Change                         Max.-Flux-Residual
  Residual-Control   Outer-Iter.   Inner-Iter.     Column Row Layer    Maximum-Head-Change  Column Row Layer    Maximum-Flux-Residual          L2-NORM 
          0                 1           2             3    7     1       0.5296637309E-02       9    5    1        -0.1524359086E+00      0.6854488856E+00
          0                 2           2             3    7     1      -0.5152193929E-03       9    5    1         0.1524357802E-01      0.6854299774E-01
          0                 3           1             3    7     1       0.3508454106E-04       9    5    1        -0.1067051053E-02      0.4797842078E-02

    ------------------------------------------------
       NWT REQUIRED            3 OUTER ITERATIONS 
       AND A TOTAL OF          5 INNER ITERATIONS.
    ------------------------------------------------

 NO OUTPUT CONTROL FOR STRESS PERIOD   29   TIME STEP   26
 
 SOLVING FOR HEAD 
                                                   Max.-Head-Change                         Max.-Flux-Residual
  Residual-Control   Outer-Iter.   Inner-Iter.     Column Row Layer    Maximum-Head-Change  Column Row Layer    Maximum-Flux-Residual          L2-NORM 
          0                 1           2             3    7     1       0.5211154188E-02       9    5    1        -0.1519333628E+00      0.6767937473E+00
          0                 2           2             3    7     1      -0.5069041803E-03       9    5    1         0.1519332353E-01      0.6767747067E-01
          0                 3           1             3    7     1       0.3451830594E-04       9    5    1        -0.1063533225E-02      0.4737207639E-02

    ------------------------------------------------
       NWT REQUIRED            3 OUTER ITERATIONS 
       AND A TOTAL OF          5 INNER ITERATIONS.
    ------------------------------------------------

 NO OUTPUT CONTROL FOR STRESS PERIOD   29   TIME STEP   27
 
 SOLVING FOR HEAD 
                                                   Max.-Head-Change                         Max.-Flux-Residual
  Residual-Control   Outer-Iter.   Inner-Iter.     Column Row Layer    Maximum-Head-Change  Column Row Layer    Maximum-Flux-Residual          L2-NORM 
          0                 1           2             3    7     1       0.5127124466E-02       9    5    1        -0.1514375034E+00      0.6684826323E+00
          0                 2           2             3    7     1      -0.4987303459E-03       9    5    1         0.1514373762E-01      0.6684644338E-01
          0                 3           1             3    7     1       0.3396169821E-04       9    5    1        -0.1060062220E-02      0.4679097557E-02

    ------------------------------------------------
       NWT REQUIRED            3 OUTER ITERATIONS 
       AND A TOTAL OF          5 INNER ITERATIONS.
    ------------------------------------------------

 NO OUTPUT CONTROL FOR STRESS PERIOD   29   TIME STEP   28
 
 SOLVING FOR HEAD 
                                                   Max.-Head-Change                         Max.-Flux-Residual
  Residual-Control   Outer-Iter.   Inner-Iter.     Column Row Layer    Maximum-Head-Change  Column Row Layer    Maximum-Flux-Residual          L2-NORM 
          0                 1           2             3    7     1       0.5045010379E-02       9    5    1        -0.1509422115E+00      0.6604924916E+00
          0                 2           2             3    7     1      -0.4907428512E-03       9    5    1         0.1509420851E-01      0.6604744211E-01
          0                 3           1             3    7     1       0.3341777925E-04       9    5    1        -0.1056595168E-02      0.4623188352E-02

    ------------------------------------------------
       NWT REQUIRED            3 OUTER ITERATIONS 
       AND A TOTAL OF          5 INNER ITERATIONS.
    ------------------------------------------------

 NO OUTPUT CONTROL FOR STRESS PERIOD   29   TIME STEP   29
 
 SOLVING FOR HEAD 
                                                   Max.-Head-Change                         Max.-Flux-Residual
  Residual-Control   Outer-Iter.   Inner-Iter.     Column Row Layer    Maximum-Head-Change  Column Row Layer    Maximum-Flux-Residual          L2-NORM 
          0                 1           2             3    7     1       0.4964288219E-02       9    5    1        -0.1504412770E+00      0.6528011123E+00
          0                 2           2             3    7     1      -0.4828907541E-03       9    5    1         0.1504411511E-01      0.6527827621E-01
          0                 3           1             3    7     1       0.3288308001E-04       9    5    1        -0.1053088620E-02      0.4569336314E-02

    ------------------------------------------------
       NWT REQUIRED            3 OUTER ITERATIONS 
       AND A TOTAL OF          5 INNER ITERATIONS.
    ------------------------------------------------

 NO OUTPUT CONTROL FOR STRESS PERIOD   29   TIME STEP   30



 STREAM LISTING     PERIOD     29   STEP       30

 LAYER ROW COL. STREAM  RCH.  FLOW INTO     FLOW TO   FLOW OUT OF   OVRLND.     DIRECT     STREAM       STREAM     STREAM     STREAM   STREAMBED  STREAMBED
                SEG.NO.  NO.  STRM. RCH.    AQUIFER    STRM. RCH.    RUNOFF     PRECIP       ET          HEAD       DEPTH      WIDTH   CONDCTNC.   GRADIENT

   1    1    1     1     1    1.9000E+01  2.1427E-01   1.8786E+01  0.000E+00  0.000E+00  0.000E+00  1.09413E+03  1.082E+00  1.166E+01  5.249E-02  1.361E+00
   1    2    2     1     2    1.8786E+01  3.3054E-01   1.8455E+01  0.000E+00  0.000E+00  0.000E+00  1.08914E+03  1.077E+00  1.158E+01  8.107E-02  1.359E+00
   1    3    3     1     3    1.8455E+01  2.8064E-01   1.8175E+01  0.000E+00  0.000E+00  0.000E+00  1.08349E+03  1.072E+00  1.149E+01  6.892E-02  1.357E+00
   1    3    4     1     4    1.8175E+01  2.5740E-01   1.7917E+01  0.000E+00  0.000E+00  0.000E+00  1.07848E+03  1.068E+00  1.140E+01  6.328E-02  1.356E+00
   1    4    5     2     1    1.5917E+01  3.0542E-01   1.5612E+01  0.000E+00  0.000E+00  0.000E+00  1.07285E+03  9.157E-01  1.200E+01  7.800E-02  1.305E+00
   1    5    6     2     2    1.5612E+01  2.3438E-01   1.5377E+01  0.000E+00  0.000E+00  0.000E+00  1.06742E+03  9.063E-01  1.200E+01  6.000E-02  1.302E+00
   1    6    6     2     3    1.5377E+01  2.3388E-01   1.5143E+01  0.000E+00  0.000E+00  0.000E+00  1.06269E+03  8.980E-01  1.200E+01  6.000E-02  1.299E+00
   1    7    6     2     4    1.5143E+01  2.3338E-01   1.4910E+01  0.000E+00  0.000E+00  0.000E+00  1.05797E+03  8.897E-01  1.200E+01  6.000E-02  1.297E+00
   1    8    6     2     5    1.4910E+01  2.3289E-01   1.4677E+01  0.000E+00  0.000E+00  0.000E+00  1.05324E+03  8.814E-01  1.200E+01  6.000E-02  1.294E+00
   1    3    5     3     1    2.0000E+00  2.8252E-01   1.7175E+00  0.000E+00  0.000E+00  0.000E+00  1.07555E+03  1.909E+00  9.636E+00  7.227E-02  1.955E+00
   1    3    6     3     2    1.7175E+00  2.4905E-01   1.4684E+00  0.000E+00  0.000E+00  0.000E+00  1.07264E+03  1.727E+00  8.909E+00  6.682E-02  1.864E+00
   1    3    7     3     3    1.4684E+00  1.9718E-01   1.2712E+00  0.000E+00  0.000E+00  0.000E+00  1.06987E+03  1.555E+00  8.218E+00  5.547E-02  1.777E+00
   1    4    8     3     4    1.2712E+00  2.2567E-01   1.0456E+00  0.000E+00  0.000E+00  0.000E+00  1.06682E+03  1.364E+00  7.455E+00  6.709E-02  1.682E+00
   1    5    8     3     5    1.0456E+00  1.5790E-01   8.8768E-01  0.000E+00  0.000E+00  0.000E+00  1.06362E+03  1.164E+00  6.655E+00  4.991E-02  1.582E+00
   1    6    8     3     6    8.8768E-01  5.5980E-02   8.3170E-01  0.000E+00  0.000E+00  0.000E+00  1.06158E+03  1.036E+00  6.145E+00  1.844E-02  1.518E+00
   1    5   10     4     1    1.0000E+01  9.0919E-02   9.9091E+00  0.000E+00  0.000E+00  0.000E+00  1.07836E+03  6.368E-01  1.000E+01  2.500E-02  1.212E+00
   1    5    9     4     2    9.9091E+00  1.8158E-01   9.7275E+00  0.000E+00  0.000E+00  0.000E+00  1.07154E+03  6.315E-01  1.000E+01  5.000E-02  1.211E+00
   1    6    8     4     3    9.7275E+00  1.2689E-01   9.6006E+00  0.000E+00  0.000E+00  0.000E+00  1.06381E+03  6.256E-01  1.000E+01  3.500E-02  1.209E+00
   1    6    8     5     1    1.0432E+01  2.2686E-01   1.0205E+01  0.000E+00  0.000E+00  0.000E+00  1.05868E+03  6.790E-01  1.542E+01  6.166E-02  1.226E+00
   1    7    7     5     2    1.0205E+01  2.7894E-01   9.9265E+00  0.000E+00  0.000E+00  0.000E+00  1.05417E+03  6.732E-01  1.519E+01  7.594E-02  1.224E+00
   1    8    7     5     3    9.9265E+00  1.9221E-01   9.7343E+00  0.000E+00  0.000E+00  0.000E+00  1.04992E+03  6.676E-01  1.497E+01  5.241E-02  1.223E+00
   1    8    6     5     4    9.7343E+00  1.3577E-01   9.5985E+00  0.000E+00  0.000E+00  0.000E+00  1.04691E+03  6.637E-01  1.482E+01  3.706E-02  1.221E+00
   1    9    6     6     1    2.4276E+01  2.5176E-01   2.4024E+01  0.000E+00  0.000E+00  0.000E+00  1.04392E+03  1.196E+00  1.200E+01  6.000E-02  1.399E+00
   1   10    7     6     2    2.4024E+01  2.5131E-01   2.3773E+01  0.000E+00  0.000E+00  0.000E+00  1.03937E+03  1.188E+00  1.200E+01  6.000E-02  1.396E+00
   1   11    7     6     3    2.3773E+01  2.5086E-01   2.3522E+01  0.000E+00  0.000E+00  0.000E+00  1.03482E+03  1.181E+00  1.200E+01  6.000E-02  1.394E+00
   1   12    7     6     4    2.3522E+01  2.5041E-01   2.3271E+01  0.000E+00  0.000E+00  0.000E+00  1.03026E+03  1.173E+00  1.200E+01  6.000E-02  1.391E+00
   1   13    7     6     5    2.3271E+01  5.6515E-03   2.3266E+01  0.000E+00  0.000E+00  0.000E+00  1.02708E+03  1.170E+00  1.200E+01  2.400E-02  7.849E-02
   1   14    9     7     1    1.5000E+02  1.3443E+00   1.4866E+02  0.000E+00  0.000E+00  0.000E+00  1.03987E+03  2.288E+00  5.529E+01  5.593E-01  8.012E-01
   1   13    8     7     2    1.4866E+02  1.8915E+00   1.4676E+02  0.000E+00  0.000E+00  0.000E+00  1.03478E+03  2.279E+00  5.526E+01  6.148E-01  1.026E+00
   1   13    7     7     3    1.4676E+02  1.5892E+00   1.4517E+02  0.000E+00  0.000E+00  0.000E+00  1.02969E+03  2.270E+00  5.521E+01  5.584E-01  9.486E-01
   1   13    6     8     1    1.6844E+02  1.0355E+00   1.6741E+02  0.000E+00  0.000E+00  0.000E+00  1.02481E+03  2.939E+00  4.261E+01  4.342E-01  7.949E-01
   1   13    5     8     2    1.6741E+02  2.8601E-01   1.6712E+02  0.000E+00  0.000E+00  0.000E+00  1.01856E+03  2.934E+00  4.255E+01  4.336E-01  2.199E-01
   1   13    4     8     3    1.6712E+02 -2.0598E+00   1.6918E+02  0.000E+00  0.000E+00  0.000E+00  1.01232E+03  2.940E+00  4.263E+01  4.344E+00 -1.580E-01
   1   13    3     8     4    1.6918E+02 -3.4688E+00   1.7265E+02  0.000E+00  0.000E+00  0.000E+00  1.00608E+03  2.958E+00  4.289E+01  4.371E+00 -2.645E-01
   1   13    2     8     5    1.7265E+02 -2.5379E+00   1.7519E+02  0.000E+00  0.000E+00  0.000E+00  9.99853E+02  2.978E+00  4.317E+01  4.400E+00 -1.923E-01
   1   13    1     8     6    1.7519E+02 -1.9743E+00   1.7716E+02  0.000E+00  0.000E+00  0.000E+00  9.94867E+02  2.992E+00  4.338E+01  2.653E+00 -2.481E-01





UNSATURATED ZONE PACKAGE VOLUMETRIC BUDGET FOR  TIME STEP    30 STRESS PERIOD   29
  ------------------------------------------------------------------------------



     CUMULATIVE VOLUMES      L**3       RATES FOR THIS TIME STEP      L**3/T
     ------------------                 ------------------------

           IN:                                      IN:
           ---                                      ---
        INFILTRATION =  1024822257.7969          INFILTRATION =           4.5675

          OUT:                                     OUT:
          ----                                     ----
              UZF ET =   879970732.4957                UZF ET =           4.5675
        UZF RECHARGE =   144779183.7052          UZF RECHARGE =       0.0000E+00

            IN - OUT =       72341.5960              IN - OUT =       0.0000E+00

          STORAGE:                                 STORAGE:
          --------                                 --------
      STORAGE CHANGE =       72353.9446        STORAGE CHANGE =       8.4818E-15

 PERCENT DISCREPANCY IS DIFFERENCE BETWEEN IN-OUT MINUS CHANGE IN STORAGE
 DIVIDED BY THE AVERAGE OF IN AND OUT TIMES 100

 PERCENT DISCREPANCY =           0.00     PERCENT DISCREPANCY =           0.00






1
  VOLUMETRIC BUDGET FOR AGRICULTURAL FIELDS AT  END OF TIME STEP   30, STRESS PERIOD  29
  ------------------------------------------------------------------------------

     CUMULATIVE VOLUMES      L**3       RATES FOR THIS TIME STEP      L**3/T
     ------------------                 ------------------------

           IN:                                      IN:
           ---                                      ---
               AG WELLS  =   962338752.0000                 AG WELLS  =           3.7200
      DIVERSION SEGMENTS =           0.0000        DIVERSION SEGMENTS =           0.0000
           GW IRRIGATION =           0.0000             GW IRRIGATION =           0.0000
           SW IRRIGATION =           0.0000             SW IRRIGATION =           0.0000
        SYSTEM LOSSES GW =           0.0000          SYSTEM LOSSES GW =           0.0000
        SYSTEM LOSSES SW =           0.0000          SYSTEM LOSSES SW =           0.0000

                TOTAL IN =   962338752.0000                  TOTAL IN =           3.7200

          OUT:                                     OUT:
          ----                                     ----
               AG WELLS  =           0.0000                 AG WELLS  =           0.0000
      DIVERSION SEGMENTS =           0.0000        DIVERSION SEGMENTS =           0.0000
           GW IRRIGATION =   962338752.0000             GW IRRIGATION =           3.7200
           SW IRRIGATION =           0.0000             SW IRRIGATION =           0.0000
        SYSTEM LOSSES GW =           0.0000          SYSTEM LOSSES GW =           0.0000
        SYSTEM LOSSES SW =           0.0000          SYSTEM LOSSES SW =           0.0000

               TOTAL OUT =   962338752.0000                 TOTAL OUT =           3.7200

                IN - OUT =           0.0000                  IN - OUT =           0.0000

     PERCENT DISCREPANCY =           0.00         PERCENT DISCREPANCY =           0.00



1
  VOLUMETRIC BUDGET FOR ENTIRE MODEL AT END OF TIME STEP   30, STRESS PERIOD  29
  ------------------------------------------------------------------------------

     CUMULATIVE VOLUMES      L**3       RATES FOR THIS TIME STEP      L**3/T
     ------------------                 ------------------------

           IN:                                      IN:
           ---                                      ---
             STORAGE     =  1273146368.0000               STORAGE     =           3.8512
       CONSTANT HEAD     =           0.0000         CONSTANT HEAD     =           0.0000
     HEAD DEP BOUNDS     =    21054372.0000       HEAD DEP BOUNDS     =           0.2863
      STREAM LEAKAGE     =   909325504.0000        STREAM LEAKAGE     =          11.8808
        UZF RECHARGE     =   144779152.0000          UZF RECHARGE     =           0.0000
               GW ET     =           0.0000                 GW ET     =           0.0000
     SURFACE LEAKAGE     =           0.0000       SURFACE LEAKAGE     =           0.0000
           AG WELLS      =           0.0000             AG WELLS      =           0.0000

                TOTAL IN =  2348305408.0000                  TOTAL IN =          16.0184

          OUT:                                     OUT:
          ----                                     ----
             STORAGE     =   585298688.0000               STORAGE     =           1.9679
       CONSTANT HEAD     =           0.0000         CONSTANT HEAD     =           0.0000
     HEAD DEP BOUNDS     =    21629506.0000       HEAD DEP BOUNDS     =           0.2892
      STREAM LEAKAGE     =   761532480.0000        STREAM LEAKAGE     =          10.0407
        UZF RECHARGE     =           0.0000          UZF RECHARGE     =           0.0000
               GW ET     =    17516202.0000                 GW ET     =           0.0000
     SURFACE LEAKAGE     =           0.0000       SURFACE LEAKAGE     =           0.0000
           AG WELLS      =   962338752.0000             AG WELLS      =           3.7200

               TOTAL OUT =  2348315648.0000                 TOTAL OUT =          16.0178

                IN - OUT =      -10240.0000                  IN - OUT =       5.4169E-04

     PERCENT DISCREPANCY =          -0.00         PERCENT DISCREPANCY =           0.00






         TIME SUMMARY AT END OF TIME STEP   30 IN STRESS PERIOD   29
                    SECONDS     MINUTES      HOURS       DAYS        YEARS
                    -----------------------------------------------------------
   TIME STEP LENGTH  87667.      1461.1      24.352      1.0147     2.77799E-03
 STRESS PERIOD TIME 2.63000E+06  43833.      730.56      30.440     8.33397E-02
         TOTAL TIME 7.37266E+07 1.22878E+06  20480.      853.32      2.3363    
1
1
                            STRESS PERIOD NO.   30, LENGTH =   2630000.    
                            -----------------------------------------------

                              NUMBER OF TIME STEPS =    30

                               MULTIPLIER FOR DELT =     1.000

                            INITIAL TIME STEP SIZE =   87666.66    

 REUSING NON-PARAMETER GHB CELLS FROM LAST STRESS PERIOD

      2 GHB CELLS

 REUSING STREAM SEGMENT DATA FROM LAST STRESS PERIOD



            AREAL INFILTRATION RATE
 READING ON UNIT   19 WITH FORMAT: (FREE)              

            1           2           3           4           5           6           7           8           9          10
 ........................................................................................................................
   1   1.0000E-10  2.0000E-10   0.000       0.000       0.000       0.000       0.000       0.000       0.000       0.000    
   2   2.0000E-10  1.0000E-10  2.0000E-10   0.000       0.000      8.0000E-10  8.0000E-10  5.0000E-10   0.000       0.000    
   3    0.000      5.0000E-10  1.0000E-10  1.0000E-10  8.0000E-10  8.0000E-10  5.0000E-10  5.0000E-10   0.000       0.000    
   4   8.0000E-10  5.0000E-10  1.0000E-10  1.0000E-10  1.0000E-10  1.0000E-10  1.0000E-10  1.0000E-10  2.0000E-10   0.000    
   5   8.0000E-10  5.0000E-10  1.0000E-10  1.0000E-10  1.0000E-10  1.0000E-10  1.0000E-10  1.0000E-10  1.0000E-10  1.0000E-10
   6   8.0000E-10  5.0000E-10  5.0000E-10  2.0000E-10  2.0000E-10  1.0000E-10  1.0000E-10  1.0000E-10  1.0000E-10  5.0000E-10
   7   8.0000E-10  5.0000E-10  5.0000E-10  2.0000E-10  2.0000E-10  1.0000E-10  1.0000E-10  2.0000E-10  2.0000E-10   0.000    
   8    0.000      5.0000E-10  5.0000E-10  2.0000E-10  2.0000E-10  1.0000E-10  1.0000E-10  2.0000E-10  5.0000E-10   0.000    
   9    0.000      5.0000E-10  5.0000E-10  2.0000E-10  2.0000E-10  1.0000E-10  1.0000E-10  2.0000E-10  5.0000E-10   0.000    
  10    0.000      5.0000E-10  5.0000E-10  2.0000E-10  2.0000E-10  1.0000E-10  1.0000E-10  2.0000E-10  5.0000E-10  8.0000E-10
  11    0.000      1.0000E-10  1.0000E-10  1.0000E-10  1.0000E-10  1.0000E-10  1.0000E-10  2.0000E-10  5.0000E-10   0.000    
  12   1.0000E-10  1.0000E-10  1.0000E-10  1.0000E-10  1.0000E-10  1.0000E-10  1.0000E-10  1.0000E-10  2.0000E-10   0.000    
  13   1.0000E-10  1.0000E-10  2.0000E-10  2.0000E-10  2.0000E-10  2.0000E-10  2.0000E-10  1.0000E-10  1.0000E-10   0.000    
  14    0.000      2.0000E-10  5.0000E-10  5.0000E-10  5.0000E-10  5.0000E-10  5.0000E-10  2.0000E-10  1.0000E-10   0.000    
  15    0.000       0.000      8.0000E-10  8.0000E-10  8.0000E-10  8.0000E-10   0.000       0.000       0.000       0.000    

                  ET RATE =  5.000000E-08

 USING ET EXTINCTION DEPTH FROM PREVIOUS STRESS PERIOD. CURRENT PERIOD IS:      30

 USING EXTINCTION WATER CONTENT FROM PREVIOUS STRESS PERIOD. CURRENT PERIOD IS:      30

 USING AIR ENTRY PRESSURE FROM PREVIOUS STRESS PERIOD. CURRENT PERIOD IS:      30

 USING ROOT PRESSURE HEAD FROM PREVIOUS STRESS PERIOD. CURRENT PERIOD IS:      30

 USING ROOT ACTIVITY FROM PREVIOUS STRESS PERIOD. CURRENT PERIOD IS:      30

 PROCESSING AG STRESS PERIOD DATA

 READING AG STRESS PERIOD DATA

 READING IRRIGATION WELL

 END PROCESSING AG STRESS PERIOD DATA OPTIONS
 
 SOLVING FOR HEAD 
                                                   Max.-Head-Change                         Max.-Flux-Residual
  Residual-Control   Outer-Iter.   Inner-Iter.     Column Row Layer    Maximum-Head-Change  Column Row Layer    Maximum-Flux-Residual          L2-NORM 
          0                 1           2             4    7     1      -0.1336956687E-01       4    7    1        -0.7001973728E+00      0.1769974757E+01
          0                 2           2             4    7     1       0.1300493565E-02       4    7    1         0.7001969686E-01      0.1769964794E+00
          0                 3           1             4    7     1      -0.8855879675E-04       4    7    1        -0.4901381278E-02      0.1238970411E-01

    ------------------------------------------------
       NWT REQUIRED            3 OUTER ITERATIONS 
       AND A TOTAL OF          5 INNER ITERATIONS.
    ------------------------------------------------

 NO OUTPUT CONTROL FOR STRESS PERIOD   30   TIME STEP    1
 
 SOLVING FOR HEAD 
                                                   Max.-Head-Change                         Max.-Flux-Residual
  Residual-Control   Outer-Iter.   Inner-Iter.     Column Row Layer    Maximum-Head-Change  Column Row Layer    Maximum-Flux-Residual          L2-NORM 
          0                 1           2             4    7     1      -0.1325799192E-01       4    7    1        -0.6946626249E+00      0.1731481113E+01
          0                 2           2             4    7     1       0.1289640191E-02       4    7    1         0.6946620998E-01      0.1731471200E+00
          0                 3           1             4    7     1      -0.8781972410E-04       4    7    1        -0.4862637299E-02      0.1212025902E-01

    ------------------------------------------------
       NWT REQUIRED            3 OUTER ITERATIONS 
       AND A TOTAL OF          5 INNER ITERATIONS.
    ------------------------------------------------

 NO OUTPUT CONTROL FOR STRESS PERIOD   30   TIME STEP    2
 
 SOLVING FOR HEAD 
                                                   Max.-Head-Change                         Max.-Flux-Residual
  Residual-Control   Outer-Iter.   Inner-Iter.     Column Row Layer    Maximum-Head-Change  Column Row Layer    Maximum-Flux-Residual          L2-NORM 
          0                 1           2             4    7     1      -0.1314184137E-01       4    7    1        -0.6888627456E+00      0.1694774938E+01
          0                 2           2             4    7     1       0.1278341755E-02       4    7    1         0.6888621128E-01      0.1694765049E+00
          0                 3           1             4    7     1      -0.8705034379E-04       4    7    1        -0.4822037469E-02      0.1186330640E-01

    ------------------------------------------------
       NWT REQUIRED            3 OUTER ITERATIONS 
       AND A TOTAL OF          5 INNER ITERATIONS.
    ------------------------------------------------

 NO OUTPUT CONTROL FOR STRESS PERIOD   30   TIME STEP    3
 
 SOLVING FOR HEAD 
                                                   Max.-Head-Change                         Max.-Flux-Residual
  Residual-Control   Outer-Iter.   Inner-Iter.     Column Row Layer    Maximum-Head-Change  Column Row Layer    Maximum-Flux-Residual          L2-NORM 
          0                 1           2             4    7     1      -0.1302174955E-01       4    7    1        -0.6828329784E+00      0.1659723141E+01
          0                 2           2             4    7     1       0.1266659960E-02       4    7    1         0.6828322502E-01      0.1659713163E+00
          0                 3           1             4    7     1      -0.8625485842E-04       4    7    1        -0.4779828511E-02      0.1161794115E-01

    ------------------------------------------------
       NWT REQUIRED            3 OUTER ITERATIONS 
       AND A TOTAL OF          5 INNER ITERATIONS.
    ------------------------------------------------

 NO OUTPUT CONTROL FOR STRESS PERIOD   30   TIME STEP    4
 
 SOLVING FOR HEAD 
                                                   Max.-Head-Change                         Max.-Flux-Residual
  Residual-Control   Outer-Iter.   Inner-Iter.     Column Row Layer    Maximum-Head-Change  Column Row Layer    Maximum-Flux-Residual          L2-NORM 
          0                 1           2             4    7     1      -0.1289804582E-01       4    7    1        -0.6765915213E+00      0.1626218971E+01
          0                 2           2             4    7     1       0.1254626839E-02       4    7    1         0.6765907085E-01      0.1626209183E+00
          0                 3           1             4    7     1      -0.8543544857E-04       4    7    1        -0.4736137765E-02      0.1138341249E-01

    ------------------------------------------------
       NWT REQUIRED            3 OUTER ITERATIONS 
       AND A TOTAL OF          5 INNER ITERATIONS.
    ------------------------------------------------

 NO OUTPUT CONTROL FOR STRESS PERIOD   30   TIME STEP    5
 
 SOLVING FOR HEAD 
                                                   Max.-Head-Change                         Max.-Flux-Residual
  Residual-Control   Outer-Iter.   Inner-Iter.     Column Row Layer    Maximum-Head-Change  Column Row Layer    Maximum-Flux-Residual          L2-NORM 
          0                 1           2             4    7     1      -0.1277117085E-01       4    7    1        -0.6701627959E+00      0.1594161960E+01
          0                 2           2             4    7     1       0.1242285260E-02       4    7    1         0.6701619091E-01      0.1594152082E+00
          0                 3           1             4    7     1      -0.8459503421E-04       4    7    1        -0.4691136235E-02      0.1115901259E-01

    ------------------------------------------------
       NWT REQUIRED            3 OUTER ITERATIONS 
       AND A TOTAL OF          5 INNER ITERATIONS.
    ------------------------------------------------

 NO OUTPUT CONTROL FOR STRESS PERIOD   30   TIME STEP    6
 
 SOLVING FOR HEAD 
                                                   Max.-Head-Change                         Max.-Flux-Residual
  Residual-Control   Outer-Iter.   Inner-Iter.     Column Row Layer    Maximum-Head-Change  Column Row Layer    Maximum-Flux-Residual          L2-NORM 
          0                 1           2             4    7     1      -0.1264167392E-01       4    7    1        -0.6635769964E+00      0.1563478788E+01
          0                 2           2             4    7     1       0.1229688648E-02       4    7    1         0.6635760446E-01      0.1563469120E+00
          0                 3           1             4    7     1      -0.8373725241E-04       4    7    1        -0.4645035218E-02      0.1094422722E-01

    ------------------------------------------------
       NWT REQUIRED            3 OUTER ITERATIONS 
       AND A TOTAL OF          5 INNER ITERATIONS.
    ------------------------------------------------

 NO OUTPUT CONTROL FOR STRESS PERIOD   30   TIME STEP    7
 
 SOLVING FOR HEAD 
                                                   Max.-Head-Change                         Max.-Flux-Residual
  Residual-Control   Outer-Iter.   Inner-Iter.     Column Row Layer    Maximum-Head-Change  Column Row Layer    Maximum-Flux-Residual          L2-NORM 
          0                 1           2             4    7     1      -0.1250966382E-01       4    7    1        -0.6568405661E+00      0.1534063190E+01
          0                 2           2             4    7     1       0.1216847586E-02       4    7    1         0.6568395584E-01      0.1534053470E+00
          0                 3           1             4    7     1      -0.8286282466E-04       4    7    1        -0.4597879854E-02      0.1073831917E-01

    ------------------------------------------------
       NWT REQUIRED            3 OUTER ITERATIONS 
       AND A TOTAL OF          5 INNER ITERATIONS.
    ------------------------------------------------

 NO OUTPUT CONTROL FOR STRESS PERIOD   30   TIME STEP    8
 
 SOLVING FOR HEAD 
                                                   Max.-Head-Change                         Max.-Flux-Residual
  Residual-Control   Outer-Iter.   Inner-Iter.     Column Row Layer    Maximum-Head-Change  Column Row Layer    Maximum-Flux-Residual          L2-NORM 
          0                 1           2             4    7     1      -0.1237563907E-01       4    7    1        -0.6499811810E+00      0.1505843653E+01
          0                 2           2             4    7     1       0.1203810565E-02       4    7    1         0.6499801252E-01      0.1505833986E+00
          0                 3           1             4    7     1      -0.8197505233E-04       4    7    1        -0.4549863829E-02      0.1054078450E-01

    ------------------------------------------------
       NWT REQUIRED            3 OUTER ITERATIONS 
       AND A TOTAL OF          5 INNER ITERATIONS.
    ------------------------------------------------

 NO OUTPUT CONTROL FOR STRESS PERIOD   30   TIME STEP    9
 
 SOLVING FOR HEAD 
                                                   Max.-Head-Change                         Max.-Flux-Residual
  Residual-Control   Outer-Iter.   Inner-Iter.     Column Row Layer    Maximum-Head-Change  Column Row Layer    Maximum-Flux-Residual          L2-NORM 
          0                 1           2             4    7     1      -0.1224007384E-01       4    7    1        -0.6430246884E+00      0.1478773523E+01
          0                 2           2             4    7     1       0.1190590815E-02       4    7    1         0.6430235917E-01      0.1478018223E+00
          0                 3           1             4    7     1      -0.8107483679E-04       4    7    1        -0.4501168133E-02      0.1034607371E-01

    ------------------------------------------------
       NWT REQUIRED            3 OUTER ITERATIONS 
       AND A TOTAL OF          5 INNER ITERATIONS.
    ------------------------------------------------

 NO OUTPUT CONTROL FOR STRESS PERIOD   30   TIME STEP   10
 
 SOLVING FOR HEAD 
                                                   Max.-Head-Change                         Max.-Flux-Residual
  Residual-Control   Outer-Iter.   Inner-Iter.     Column Row Layer    Maximum-Head-Change  Column Row Layer    Maximum-Flux-Residual          L2-NORM 
          0                 1           2             4    7     1      -0.1210316414E-01       4    7    1        -0.6359753877E+00      0.1452814546E+01
          0                 2           2             4    7     1       0.1177306109E-02       4    7    1         0.6359742592E-01      0.1452805562E+00
          0                 3           1             4    7     1      -0.8017019806E-04       4    7    1        -0.4451822810E-02      0.1016958742E-01

    ------------------------------------------------
       NWT REQUIRED            3 OUTER ITERATIONS 
       AND A TOTAL OF          5 INNER ITERATIONS.
    ------------------------------------------------

 NO OUTPUT CONTROL FOR STRESS PERIOD   30   TIME STEP   11
 
 SOLVING FOR HEAD 
                                                   Max.-Head-Change                         Max.-Flux-Residual
  Residual-Control   Outer-Iter.   Inner-Iter.     Column Row Layer    Maximum-Head-Change  Column Row Layer    Maximum-Flux-Residual          L2-NORM 
          0                 1           2             4    7     1      -0.1196522689E-01       4    7    1        -0.6288602307E+00      0.1427969207E+01
          0                 2           2             4    7     1       0.1163888539E-02       4    7    1         0.6288590754E-01      0.1427960348E+00
          0                 3           1             4    7     1      -0.7925651166E-04       4    7    1        -0.4402016517E-02      0.9995674594E-02

    ------------------------------------------------
       NWT REQUIRED            3 OUTER ITERATIONS 
       AND A TOTAL OF          5 INNER ITERATIONS.
    ------------------------------------------------

 NO OUTPUT CONTROL FOR STRESS PERIOD   30   TIME STEP   12
 
 SOLVING FOR HEAD 
                                                   Max.-Head-Change                         Max.-Flux-Residual
  Residual-Control   Outer-Iter.   Inner-Iter.     Column Row Layer    Maximum-Head-Change  Column Row Layer    Maximum-Flux-Residual          L2-NORM 
          0                 1           2             4    7     1      -0.1182669201E-01       4    7    1        -0.6217008946E+00      0.1404080695E+01
          0                 2           2             4    7     1       0.1150412843E-02       4    7    1         0.6216997178E-01      0.1404071910E+00
          0                 3           1             4    7     1      -0.7833886726E-04       4    7    1        -0.4351901019E-02      0.9828461101E-02

    ------------------------------------------------
       NWT REQUIRED            3 OUTER ITERATIONS 
       AND A TOTAL OF          5 INNER ITERATIONS.
    ------------------------------------------------

 NO OUTPUT CONTROL FOR STRESS PERIOD   30   TIME STEP   13
 
 SOLVING FOR HEAD 
                                                   Max.-Head-Change                         Max.-Flux-Residual
  Residual-Control   Outer-Iter.   Inner-Iter.     Column Row Layer    Maximum-Head-Change  Column Row Layer    Maximum-Flux-Residual          L2-NORM 
          0                 1           2             4    7     1      -0.1168751560E-01       4    7    1        -0.6144958875E+00      0.1381071521E+01
          0                 2           2             4    7     1       0.1136874750E-02       4    7    1         0.6144946942E-01      0.1381062656E+00
          0                 3           1             4    7     1      -0.7741697351E-04       4    7    1        -0.4301465845E-02      0.9667384882E-02

    ------------------------------------------------
       NWT REQUIRED            3 OUTER ITERATIONS 
       AND A TOTAL OF          5 INNER ITERATIONS.
    ------------------------------------------------

 NO OUTPUT CONTROL FOR STRESS PERIOD   30   TIME STEP   14
 
 SOLVING FOR HEAD 
                                                   Max.-Head-Change                         Max.-Flux-Residual
  Residual-Control   Outer-Iter.   Inner-Iter.     Column Row Layer    Maximum-Head-Change  Column Row Layer    Maximum-Flux-Residual          L2-NORM 
          0                 1           2             4    7     1      -0.1154805956E-01       4    7    1        -0.6072649660E+00      0.1358911912E+01
          0                 2           2             4    7     1       0.1123309465E-02       4    7    1         0.6072637603E-01      0.1358903114E+00
          0                 3           1             4    7     1      -0.7649322803E-04       4    7    1        -0.4250849303E-02      0.9512265003E-02

    ------------------------------------------------
       NWT REQUIRED            3 OUTER ITERATIONS 
       AND A TOTAL OF          5 INNER ITERATIONS.
    ------------------------------------------------

 NO OUTPUT CONTROL FOR STRESS PERIOD   30   TIME STEP   15
 
 SOLVING FOR HEAD 
                                                   Max.-Head-Change                         Max.-Flux-Residual
  Residual-Control   Outer-Iter.   Inner-Iter.     Column Row Layer    Maximum-Head-Change  Column Row Layer    Maximum-Flux-Residual          L2-NORM 
          0                 1           2             4    7     1      -0.1140852507E-01       4    7    1        -0.6000195504E+00      0.1337552314E+01
          0                 2           2             4    7     1       0.1109736553E-02       4    7    1         0.6000183363E-01      0.1337543636E+00
          0                 3           1             4    7     1      -0.7556896316E-04       4    7    1        -0.4200131316E-02      0.9362750197E-02

    ------------------------------------------------
       NWT REQUIRED            3 OUTER ITERATIONS 
       AND A TOTAL OF          5 INNER ITERATIONS.
    ------------------------------------------------

 NO OUTPUT CONTROL FOR STRESS PERIOD   30   TIME STEP   16
 
 SOLVING FOR HEAD 
                                                   Max.-Head-Change                         Max.-Flux-Residual
  Residual-Control   Outer-Iter.   Inner-Iter.     Column Row Layer    Maximum-Head-Change  Column Row Layer    Maximum-Flux-Residual          L2-NORM 
          0                 1           2             4    7     1      -0.1126909962E-01       4    7    1        -0.5927700704E+00      0.1316953787E+01
          0                 2           2             4    7     1       0.1096174254E-02       4    7    1         0.5927688516E-01      0.1316945154E+00
          0                 3           1             4    7     1      -0.7464542110E-04       4    7    1        -0.4149384913E-02      0.9218554649E-02

    ------------------------------------------------
       NWT REQUIRED            3 OUTER ITERATIONS 
       AND A TOTAL OF          5 INNER ITERATIONS.
    ------------------------------------------------

 NO OUTPUT CONTROL FOR STRESS PERIOD   30   TIME STEP   17
 
 SOLVING FOR HEAD 
                                                   Max.-Head-Change                         Max.-Flux-Residual
  Residual-Control   Outer-Iter.   Inner-Iter.     Column Row Layer    Maximum-Head-Change  Column Row Layer    Maximum-Flux-Residual          L2-NORM 
          0                 1           2             4    7     1      -0.1112995205E-01       4    7    1        -0.5855262482E+00      0.1297075104E+01
          0                 2           2             4    7     1       0.1082638988E-02       4    7    1         0.5855250274E-01      0.1297066460E+00
          0                 3           1             4    7     1      -0.7372371965E-04       4    7    1        -0.4098678128E-02      0.9079383563E-02

    ------------------------------------------------
       NWT REQUIRED            3 OUTER ITERATIONS 
       AND A TOTAL OF          5 INNER ITERATIONS.
    ------------------------------------------------

 NO OUTPUT CONTROL FOR STRESS PERIOD   30   TIME STEP   18
 
 SOLVING FOR HEAD 
                                                   Max.-Head-Change                         Max.-Flux-Residual
  Residual-Control   Outer-Iter.   Inner-Iter.     Column Row Layer    Maximum-Head-Change  Column Row Layer    Maximum-Flux-Residual          L2-NORM 
          0                 1           2             4    7     1      -0.1099123914E-01       4    7    1        -0.5782968368E+00      0.1277884110E+01
          0                 2           2             4    7     1       0.1069146008E-02       4    7    1         0.5782956173E-01      0.1277875430E+00
          0                 3           1             4    7     1      -0.7280489756E-04       4    7    1        -0.4048072224E-02      0.8945064534E-02

    ------------------------------------------------
       NWT REQUIRED            3 OUTER ITERATIONS 
       AND A TOTAL OF          5 INNER ITERATIONS.
    ------------------------------------------------

 NO OUTPUT CONTROL FOR STRESS PERIOD   30   TIME STEP   19
 
 SOLVING FOR HEAD 
                                                   Max.-Head-Change                         Max.-Flux-Residual
  Residual-Control   Outer-Iter.   Inner-Iter.     Column Row Layer    Maximum-Head-Change  Column Row Layer    Maximum-Flux-Residual          L2-NORM 
          0                 1           2             4    7     1      -0.1085310844E-01       4    7    1        -0.5710899656E+00      0.1259351761E+01
          0                 2           2             4    7     1       0.1055709665E-02       4    7    1         0.5710887499E-01      0.1259343144E+00
          0                 3           1             4    7     1      -0.7188993254E-04       4    7    1        -0.3997624132E-02      0.8815337713E-02

    ------------------------------------------------
       NWT REQUIRED            3 OUTER ITERATIONS 
       AND A TOTAL OF          5 INNER ITERATIONS.
    ------------------------------------------------

 NO OUTPUT CONTROL FOR STRESS PERIOD   30   TIME STEP   20
 
 SOLVING FOR HEAD 
                                                   Max.-Head-Change                         Max.-Flux-Residual
  Residual-Control   Outer-Iter.   Inner-Iter.     Column Row Layer    Maximum-Head-Change  Column Row Layer    Maximum-Flux-Residual          L2-NORM 
          0                 1           2             4    7     1      -0.1071555400E-01       4    7    1        -0.5639059416E+00      0.1241440082E+01
          0                 2           2             4    7     1       0.1042329379E-02       4    7    1         0.5639047319E-01      0.1241431619E+00
          0                 3           1             4    7     1      -0.7097878470E-04       4    7    1        -0.3947335975E-02      0.8689977717E-02

    ------------------------------------------------
       NWT REQUIRED            3 OUTER ITERATIONS 
       AND A TOTAL OF          5 INNER ITERATIONS.
    ------------------------------------------------

 NO OUTPUT CONTROL FOR STRESS PERIOD   30   TIME STEP   21
 
 SOLVING FOR HEAD 
                                                   Max.-Head-Change                         Max.-Flux-Residual
  Residual-Control   Outer-Iter.   Inner-Iter.     Column Row Layer    Maximum-Head-Change  Column Row Layer    Maximum-Flux-Residual          L2-NORM 
          0                 1           2             4    7     1      -0.1057897467E-01       4    7    1        -0.5567664850E+00      0.1224129943E+01
          0                 2           2             4    7     1       0.1029043948E-02       4    7    1         0.5567652834E-01      0.1224121643E+00
          0                 3           1             4    7     1      -0.7007409567E-04       4    7    1        -0.3897359793E-02      0.8568822485E-02

    ------------------------------------------------
       NWT REQUIRED            3 OUTER ITERATIONS 
       AND A TOTAL OF          5 INNER ITERATIONS.
    ------------------------------------------------

 NO OUTPUT CONTROL FOR STRESS PERIOD   30   TIME STEP   22
 
 SOLVING FOR HEAD 
                                                   Max.-Head-Change                         Max.-Flux-Residual
  Residual-Control   Outer-Iter.   Inner-Iter.     Column Row Layer    Maximum-Head-Change  Column Row Layer    Maximum-Flux-Residual          L2-NORM 
          0                 1           2             4    7     1      -0.1044320038E-01       4    7    1        -0.5496629047E+00      0.1207383152E+01
          0                 2           2             4    7     1       0.1015836828E-02       4    7    1         0.5496617131E-01      0.1207374738E+00
          0                 3           1             4    7     1      -0.6917473996E-04       4    7    1        -0.3847634783E-02      0.8451562522E-02

    ------------------------------------------------
       NWT REQUIRED            3 OUTER ITERATIONS 
       AND A TOTAL OF          5 INNER ITERATIONS.
    ------------------------------------------------

 NO OUTPUT CONTROL FOR STRESS PERIOD   30   TIME STEP   23
 
 SOLVING FOR HEAD 
                                                   Max.-Head-Change                         Max.-Flux-Residual
  Residual-Control   Outer-Iter.   Inner-Iter.     Column Row Layer    Maximum-Head-Change  Column Row Layer    Maximum-Flux-Residual          L2-NORM 
          0                 1           2             4    7     1      -0.1030860160E-01       4    7    1        -0.5426157521E+00      0.1191179541E+01
          0                 2           2             4    7     1       0.1002744055E-02       4    7    1         0.5426145721E-01      0.1191171115E+00
          0                 3           1             4    7     1      -0.6828317033E-04       4    7    1        -0.3798304755E-02      0.8338144919E-02

    ------------------------------------------------
       NWT REQUIRED            3 OUTER ITERATIONS 
       AND A TOTAL OF          5 INNER ITERATIONS.
    ------------------------------------------------

 NO OUTPUT CONTROL FOR STRESS PERIOD   30   TIME STEP   24
 
 SOLVING FOR HEAD 
                                                   Max.-Head-Change                         Max.-Flux-Residual
  Residual-Control   Outer-Iter.   Inner-Iter.     Column Row Layer    Maximum-Head-Change  Column Row Layer    Maximum-Flux-Residual          L2-NORM 
          0                 1           2             4    7     1      -0.1017512851E-01       4    7    1        -0.5356222086E+00      0.1175500066E+01
          0                 2           2             4    7     1       0.9897607828E-03       4    7    1         0.5356210413E-01      0.1175493259E+00
          0                 3           1             4    7     1      -0.6739905768E-04       4    7    1        -0.3749350014E-02      0.8228548857E-02

    ------------------------------------------------
       NWT REQUIRED            3 OUTER ITERATIONS 
       AND A TOTAL OF          5 INNER ITERATIONS.
    ------------------------------------------------

 NO OUTPUT CONTROL FOR STRESS PERIOD   30   TIME STEP   25
 
 SOLVING FOR HEAD 
                                                   Max.-Head-Change                         Max.-Flux-Residual
  Residual-Control   Outer-Iter.   Inner-Iter.     Column Row Layer    Maximum-Head-Change  Column Row Layer    Maximum-Flux-Residual          L2-NORM 
          0                 1           2             4    7     1      -0.1004272693E-01       4    7    1        -0.5286796918E+00      0.1160314371E+01
          0                 2           2             4    7     1       0.9768817418E-03       4    7    1         0.5286785385E-01      0.1160306163E+00
          0                 3           1             4    7     1      -0.6652204227E-04       4    7    1        -0.3700752447E-02      0.8122103476E-02

    ------------------------------------------------
       NWT REQUIRED            3 OUTER ITERATIONS 
       AND A TOTAL OF          5 INNER ITERATIONS.
    ------------------------------------------------

 NO OUTPUT CONTROL FOR STRESS PERIOD   30   TIME STEP   26
 
 SOLVING FOR HEAD 
                                                   Max.-Head-Change                         Max.-Flux-Residual
  Residual-Control   Outer-Iter.   Inner-Iter.     Column Row Layer    Maximum-Head-Change  Column Row Layer    Maximum-Flux-Residual          L2-NORM 
          0                 1           2             4    7     1      -0.9911741611E-02       4    7    1        -0.5218074184E+00      0.1145607455E+01
          0                 2           2             4    7     1       0.9641404651E-03       4    7    1         0.5218062801E-01      0.1145599141E+00
          0                 3           1             4    7     1      -0.6565440847E-04       4    7    1        -0.3652646619E-02      0.8019129689E-02

    ------------------------------------------------
       NWT REQUIRED            3 OUTER ITERATIONS 
       AND A TOTAL OF          5 INNER ITERATIONS.
    ------------------------------------------------

 NO OUTPUT CONTROL FOR STRESS PERIOD   30   TIME STEP   27
 
 SOLVING FOR HEAD 
                                                   Max.-Head-Change                         Max.-Flux-Residual
  Residual-Control   Outer-Iter.   Inner-Iter.     Column Row Layer    Maximum-Head-Change  Column Row Layer    Maximum-Flux-Residual          L2-NORM 
          0                 1           2             4    7     1      -0.9782096360E-02       4    7    1        -0.5150012365E+00      0.1131361899E+01
          0                 2           2             4    7     1       0.9515295423E-03       4    7    1         0.5150001142E-01      0.1131353639E+00
          0                 3           1             4    7     1      -0.6479565122E-04       4    7    1        -0.3605003427E-02      0.7919406503E-02

    ------------------------------------------------
       NWT REQUIRED            3 OUTER ITERATIONS 
       AND A TOTAL OF          5 INNER ITERATIONS.
    ------------------------------------------------

 NO OUTPUT CONTROL FOR STRESS PERIOD   30   TIME STEP   28
 
 SOLVING FOR HEAD 
                                                   Max.-Head-Change                         Max.-Flux-Residual
  Residual-Control   Outer-Iter.   Inner-Iter.     Column Row Layer    Maximum-Head-Change  Column Row Layer    Maximum-Flux-Residual          L2-NORM 
          0                 1           2             4    7     1      -0.9653712042E-02       4    7    1        -0.5082571967E+00      0.1117550259E+01
          0                 2           2             4    7     1       0.9390412747E-03       4    7    1         0.5082560914E-01      0.1117542087E+00
          0                 3           1             4    7     1      -0.6394524616E-04       4    7    1        -0.3557795216E-02      0.7822745932E-02

    ------------------------------------------------
       NWT REQUIRED            3 OUTER ITERATIONS 
       AND A TOTAL OF          5 INNER ITERATIONS.
    ------------------------------------------------

 NO OUTPUT CONTROL FOR STRESS PERIOD   30   TIME STEP   29
 
 SOLVING FOR HEAD 
                                                   Max.-Head-Change                         Max.-Flux-Residual
  Residual-Control   Outer-Iter.   Inner-Iter.     Column Row Layer    Maximum-Head-Change  Column Row Layer    Maximum-Flux-Residual          L2-NORM 
          0                 1           2             4    7     1      -0.9526913894E-02       4    7    1        -0.5015932202E+00      0.1104163379E+01
          0                 2           2             4    7     1       0.9267072990E-03       4    7    1         0.5015921322E-01      0.1104155431E+00
          0                 3           1             4    7     1      -0.6310534763E-04       4    7    1        -0.3511147459E-02      0.7729045164E-02

    ------------------------------------------------
       NWT REQUIRED            3 OUTER ITERATIONS 
       AND A TOTAL OF          5 INNER ITERATIONS.
    ------------------------------------------------

 NO OUTPUT CONTROL FOR STRESS PERIOD   30   TIME STEP   30



 STREAM LISTING     PERIOD     30   STEP       30

 LAYER ROW COL. STREAM  RCH.  FLOW INTO     FLOW TO   FLOW OUT OF   OVRLND.     DIRECT     STREAM       STREAM     STREAM     STREAM   STREAMBED  STREAMBED
                SEG.NO.  NO.  STRM. RCH.    AQUIFER    STRM. RCH.    RUNOFF     PRECIP       ET          HEAD       DEPTH      WIDTH   CONDCTNC.   GRADIENT

   1    1    1     1     1    1.9000E+01  2.1427E-01   1.8786E+01  0.000E+00  0.000E+00  0.000E+00  1.09413E+03  1.082E+00  1.166E+01  5.249E-02  1.361E+00
   1    2    2     1     2    1.8786E+01  3.3054E-01   1.8455E+01  0.000E+00  0.000E+00  0.000E+00  1.08914E+03  1.077E+00  1.158E+01  8.107E-02  1.359E+00
   1    3    3     1     3    1.8455E+01  2.8064E-01   1.8175E+01  0.000E+00  0.000E+00  0.000E+00  1.08349E+03  1.072E+00  1.149E+01  6.892E-02  1.357E+00
   1    3    4     1     4    1.8175E+01  2.5740E-01   1.7917E+01  0.000E+00  0.000E+00  0.000E+00  1.07848E+03  1.068E+00  1.140E+01  6.328E-02  1.356E+00
   1    4    5     2     1    1.5917E+01  3.0542E-01   1.5612E+01  0.000E+00  0.000E+00  0.000E+00  1.07285E+03  9.157E-01  1.200E+01  7.800E-02  1.305E+00
   1    5    6     2     2    1.5612E+01  2.3438E-01   1.5377E+01  0.000E+00  0.000E+00  0.000E+00  1.06742E+03  9.063E-01  1.200E+01  6.000E-02  1.302E+00
   1    6    6     2     3    1.5377E+01  2.3388E-01   1.5143E+01  0.000E+00  0.000E+00  0.000E+00  1.06269E+03  8.980E-01  1.200E+01  6.000E-02  1.299E+00
   1    7    6     2     4    1.5143E+01  2.3338E-01   1.4910E+01  0.000E+00  0.000E+00  0.000E+00  1.05797E+03  8.897E-01  1.200E+01  6.000E-02  1.297E+00
   1    8    6     2     5    1.4910E+01  2.3289E-01   1.4677E+01  0.000E+00  0.000E+00  0.000E+00  1.05324E+03  8.814E-01  1.200E+01  6.000E-02  1.294E+00
   1    3    5     3     1    2.0000E+00  2.8252E-01   1.7175E+00  0.000E+00  0.000E+00  0.000E+00  1.07555E+03  1.909E+00  9.636E+00  7.227E-02  1.955E+00
   1    3    6     3     2    1.7175E+00  2.4905E-01   1.4684E+00  0.000E+00  0.000E+00  0.000E+00  1.07264E+03  1.727E+00  8.909E+00  6.682E-02  1.864E+00
   1    3    7     3     3    1.4684E+00  1.9718E-01   1.2712E+00  0.000E+00  0.000E+00  0.000E+00  1.06987E+03  1.555E+00  8.218E+00  5.547E-02  1.777E+00
   1    4    8     3     4    1.2712E+00  2.2567E-01   1.0456E+00  0.000E+00  0.000E+00  0.000E+00  1.06682E+03  1.364E+00  7.455E+00  6.709E-02  1.682E+00
   1    5    8     3     5    1.0456E+00  1.5790E-01   8.8768E-01  0.000E+00  0.000E+00  0.000E+00  1.06362E+03  1.164E+00  6.655E+00  4.991E-02  1.582E+00
   1    6    8     3     6    8.8768E-01  5.5980E-02   8.3170E-01  0.000E+00  0.000E+00  0.000E+00  1.06158E+03  1.036E+00  6.145E+00  1.844E-02  1.518E+00
   1    5   10     4     1    1.0000E+01  9.0919E-02   9.9091E+00  0.000E+00  0.000E+00  0.000E+00  1.07836E+03  6.368E-01  1.000E+01  2.500E-02  1.212E+00
   1    5    9     4     2    9.9091E+00  1.8158E-01   9.7275E+00  0.000E+00  0.000E+00  0.000E+00  1.07154E+03  6.315E-01  1.000E+01  5.000E-02  1.211E+00
   1    6    8     4     3    9.7275E+00  1.2689E-01   9.6006E+00  0.000E+00  0.000E+00  0.000E+00  1.06381E+03  6.256E-01  1.000E+01  3.500E-02  1.209E+00
   1    6    8     5     1    1.0432E+01  2.2686E-01   1.0205E+01  0.000E+00  0.000E+00  0.000E+00  1.05868E+03  6.790E-01  1.542E+01  6.166E-02  1.226E+00
   1    7    7     5     2    1.0205E+01  2.7894E-01   9.9265E+00  0.000E+00  0.000E+00  0.000E+00  1.05417E+03  6.732E-01  1.519E+01  7.594E-02  1.224E+00
   1    8    7     5     3    9.9265E+00  1.9221E-01   9.7343E+00  0.000E+00  0.000E+00  0.000E+00  1.04992E+03  6.676E-01  1.497E+01  5.241E-02  1.223E+00
   1    8    6     5     4    9.7343E+00  1.3577E-01   9.5985E+00  0.000E+00  0.000E+00  0.000E+00  1.04691E+03  6.637E-01  1.482E+01  3.706E-02  1.221E+00
   1    9    6     6     1    2.4276E+01  2.5176E-01   2.4024E+01  0.000E+00  0.000E+00  0.000E+00  1.04392E+03  1.196E+00  1.200E+01  6.000E-02  1.399E+00
   1   10    7     6     2    2.4024E+01  2.5131E-01   2.3773E+01  0.000E+00  0.000E+00  0.000E+00  1.03937E+03  1.188E+00  1.200E+01  6.000E-02  1.396E+00
   1   11    7     6     3    2.3773E+01  2.5086E-01   2.3522E+01  0.000E+00  0.000E+00  0.000E+00  1.03482E+03  1.181E+00  1.200E+01  6.000E-02  1.394E+00
   1   12    7     6     4    2.3522E+01  2.5041E-01   2.3271E+01  0.000E+00  0.000E+00  0.000E+00  1.03026E+03  1.173E+00  1.200E+01  6.000E-02  1.391E+00
   1   13    7     6     5    2.3271E+01  6.1088E-03   2.3265E+01  0.000E+00  0.000E+00  0.000E+00  1.02708E+03  1.170E+00  1.200E+01  2.400E-02  8.484E-02
   1   14    9     7     1    1.5000E+02  1.3462E+00   1.4865E+02  0.000E+00  0.000E+00  0.000E+00  1.03987E+03  2.288E+00  5.529E+01  5.593E-01  8.023E-01
   1   13    8     7     2    1.4865E+02  1.8988E+00   1.4675E+02  0.000E+00  0.000E+00  0.000E+00  1.03478E+03  2.279E+00  5.526E+01  6.148E-01  1.030E+00
   1   13    7     7     3    1.4675E+02  1.5998E+00   1.4516E+02  0.000E+00  0.000E+00  0.000E+00  1.02969E+03  2.270E+00  5.521E+01  5.584E-01  9.550E-01
   1   13    6     8     1    1.6842E+02  1.0437E+00   1.6738E+02  0.000E+00  0.000E+00  0.000E+00  1.02481E+03  2.938E+00  4.261E+01  4.342E-01  8.013E-01
   1   13    5     8     2    1.6738E+02  2.9167E-01   1.6709E+02  0.000E+00  0.000E+00  0.000E+00  1.01856E+03  2.934E+00  4.254E+01  4.335E-01  2.243E-01
   1   13    4     8     3    1.6709E+02 -2.0452E+00   1.6913E+02  0.000E+00  0.000E+00  0.000E+00  1.01231E+03  2.940E+00  4.263E+01  4.344E+00 -1.569E-01
   1   13    3     8     4    1.6913E+02 -3.4588E+00   1.7259E+02  0.000E+00  0.000E+00  0.000E+00  1.00608E+03  2.958E+00  4.289E+01  4.370E+00 -2.638E-01
   1   13    2     8     5    1.7259E+02 -2.5339E+00   1.7512E+02  0.000E+00  0.000E+00  0.000E+00  9.99852E+02  2.977E+00  4.317E+01  4.399E+00 -1.920E-01
   1   13    1     8     6    1.7512E+02 -1.9728E+00   1.7710E+02  0.000E+00  0.000E+00  0.000E+00  9.94867E+02  2.992E+00  4.338E+01  2.652E+00 -2.480E-01





UNSATURATED ZONE PACKAGE VOLUMETRIC BUDGET FOR  TIME STEP    30 STRESS PERIOD   30
  ------------------------------------------------------------------------------



     CUMULATIVE VOLUMES      L**3       RATES FOR THIS TIME STEP      L**3/T
     ------------------                 ------------------------

           IN:                                      IN:
           ---                                      ---
        INFILTRATION =  1046697281.7358          INFILTRATION =           8.3175

          OUT:                                     OUT:
          ----                                     ----
              UZF ET =   901845756.4346                UZF ET =           8.3175
        UZF RECHARGE =   144779183.7052          UZF RECHARGE =       0.0000E+00

            IN - OUT =       72341.5960              IN - OUT =       0.0000E+00

          STORAGE:                                 STORAGE:
          --------                                 --------
      STORAGE CHANGE =       72353.9446        STORAGE CHANGE =       8.5241E-15

 PERCENT DISCREPANCY IS DIFFERENCE BETWEEN IN-OUT MINUS CHANGE IN STORAGE
 DIVIDED BY THE AVERAGE OF IN AND OUT TIMES 100

 PERCENT DISCREPANCY =           0.00     PERCENT DISCREPANCY =           0.00






1
  VOLUMETRIC BUDGET FOR AGRICULTURAL FIELDS AT  END OF TIME STEP   30, STRESS PERIOD  30
  ------------------------------------------------------------------------------

     CUMULATIVE VOLUMES      L**3       RATES FOR THIS TIME STEP      L**3/T
     ------------------                 ------------------------

           IN:                                      IN:
           ---                                      ---
               AG WELLS  =   981984192.0000                 AG WELLS  =           7.4700
      DIVERSION SEGMENTS =           0.0000        DIVERSION SEGMENTS =           0.0000
           GW IRRIGATION =           0.0000             GW IRRIGATION =           0.0000
           SW IRRIGATION =           0.0000             SW IRRIGATION =           0.0000
        SYSTEM LOSSES GW =           0.0000          SYSTEM LOSSES GW =           0.0000
        SYSTEM LOSSES SW =           0.0000          SYSTEM LOSSES SW =           0.0000

                TOTAL IN =   981984192.0000                  TOTAL IN =           7.4700

          OUT:                                     OUT:
          ----                                     ----
               AG WELLS  =           0.0000                 AG WELLS  =           0.0000
      DIVERSION SEGMENTS =           0.0000        DIVERSION SEGMENTS =           0.0000
           GW IRRIGATION =   981984192.0000             GW IRRIGATION =           7.4700
           SW IRRIGATION =           0.0000             SW IRRIGATION =           0.0000
        SYSTEM LOSSES GW =           0.0000          SYSTEM LOSSES GW =           0.0000
        SYSTEM LOSSES SW =           0.0000          SYSTEM LOSSES SW =           0.0000

               TOTAL OUT =   981984192.0000                 TOTAL OUT =           7.4700

                IN - OUT =           0.0000                  IN - OUT =           0.0000

     PERCENT DISCREPANCY =           0.00         PERCENT DISCREPANCY =           0.00



1
  VOLUMETRIC BUDGET FOR ENTIRE MODEL AT END OF TIME STEP   30, STRESS PERIOD  30
  ------------------------------------------------------------------------------

     CUMULATIVE VOLUMES      L**3       RATES FOR THIS TIME STEP      L**3/T
     ------------------                 ------------------------

           IN:                                      IN:
           ---                                      ---
             STORAGE     =  1290439936.0000               STORAGE     =           6.0283
       CONSTANT HEAD     =           0.0000         CONSTANT HEAD     =           0.0000
     HEAD DEP BOUNDS     =    21807616.0000       HEAD DEP BOUNDS     =           0.2865
      STREAM LEAKAGE     =   940619840.0000        STREAM LEAKAGE     =          11.9150
        UZF RECHARGE     =   144779152.0000          UZF RECHARGE     =           0.0000
               GW ET     =           0.0000                 GW ET     =           0.0000
     SURFACE LEAKAGE     =           0.0000       SURFACE LEAKAGE     =           0.0000
           AG WELLS      =           0.0000             AG WELLS      =           0.0000

                TOTAL IN =  2397646592.0000                  TOTAL IN =          18.2298

          OUT:                                     OUT:
          ----                                     ----
             STORAGE     =   587863936.0000               STORAGE     =           0.4583
       CONSTANT HEAD     =           0.0000         CONSTANT HEAD     =           0.0000
     HEAD DEP BOUNDS     =    22390132.0000       HEAD DEP BOUNDS     =           0.2892
      STREAM LEAKAGE     =   787896960.0000        STREAM LEAKAGE     =          10.0107
        UZF RECHARGE     =           0.0000          UZF RECHARGE     =           0.0000
               GW ET     =    17516202.0000                 GW ET     =           0.0000
     SURFACE LEAKAGE     =           0.0000       SURFACE LEAKAGE     =           0.0000
           AG WELLS      =   981984192.0000             AG WELLS      =           7.4700

               TOTAL OUT =  2397651456.0000                 TOTAL OUT =          18.2282

                IN - OUT =       -4864.0000                  IN - OUT =       1.5965E-03

     PERCENT DISCREPANCY =          -0.00         PERCENT DISCREPANCY =           0.01






         TIME SUMMARY AT END OF TIME STEP   30 IN STRESS PERIOD   30
                    SECONDS     MINUTES      HOURS       DAYS        YEARS
                    -----------------------------------------------------------
   TIME STEP LENGTH  87667.      1461.1      24.352      1.0147     2.77799E-03
 STRESS PERIOD TIME 2.63000E+06  43833.      730.56      30.440     8.33397E-02
         TOTAL TIME 7.63565E+07 1.27261E+06  21210.      883.76      2.4196    
1
1
                            STRESS PERIOD NO.   31, LENGTH =   2630000.    
                            -----------------------------------------------

                              NUMBER OF TIME STEPS =    30

                               MULTIPLIER FOR DELT =     1.000

                            INITIAL TIME STEP SIZE =   87666.66    

 REUSING NON-PARAMETER GHB CELLS FROM LAST STRESS PERIOD

      2 GHB CELLS

 REUSING STREAM SEGMENT DATA FROM LAST STRESS PERIOD



            AREAL INFILTRATION RATE
 READING ON UNIT   19 WITH FORMAT: (FREE)              

            1           2           3           4           5           6           7           8           9          10
 ........................................................................................................................
   1   1.0000E-10  2.0000E-10   0.000       0.000       0.000       0.000       0.000       0.000       0.000       0.000    
   2   2.0000E-10  1.0000E-10  2.0000E-10   0.000       0.000      8.0000E-10  8.0000E-10  5.0000E-10   0.000       0.000    
   3    0.000      5.0000E-10  1.0000E-10  1.0000E-10  8.0000E-10  8.0000E-10  5.0000E-10  5.0000E-10   0.000       0.000    
   4   8.0000E-10  5.0000E-10  1.0000E-10  1.0000E-10  1.0000E-10  1.0000E-10  1.0000E-10  1.0000E-10  2.0000E-10   0.000    
   5   8.0000E-10  5.0000E-10  1.0000E-10  1.0000E-10  1.0000E-10  1.0000E-10  1.0000E-10  1.0000E-10  1.0000E-10  1.0000E-10
   6   8.0000E-10  5.0000E-10  5.0000E-10  2.0000E-10  2.0000E-10  1.0000E-10  1.0000E-10  1.0000E-10  1.0000E-10  5.0000E-10
   7   8.0000E-10  5.0000E-10  5.0000E-10  2.0000E-10  2.0000E-10  1.0000E-10  1.0000E-10  2.0000E-10  2.0000E-10   0.000    
   8    0.000      5.0000E-10  5.0000E-10  2.0000E-10  2.0000E-10  1.0000E-10  1.0000E-10  2.0000E-10  5.0000E-10   0.000    
   9    0.000      5.0000E-10  5.0000E-10  2.0000E-10  2.0000E-10  1.0000E-10  1.0000E-10  2.0000E-10  5.0000E-10   0.000    
  10    0.000      5.0000E-10  5.0000E-10  2.0000E-10  2.0000E-10  1.0000E-10  1.0000E-10  2.0000E-10  5.0000E-10  8.0000E-10
  11    0.000      1.0000E-10  1.0000E-10  1.0000E-10  1.0000E-10  1.0000E-10  1.0000E-10  2.0000E-10  5.0000E-10   0.000    
  12   1.0000E-10  1.0000E-10  1.0000E-10  1.0000E-10  1.0000E-10  1.0000E-10  1.0000E-10  1.0000E-10  2.0000E-10   0.000    
  13   1.0000E-10  1.0000E-10  2.0000E-10  2.0000E-10  2.0000E-10  2.0000E-10  2.0000E-10  1.0000E-10  1.0000E-10   0.000    
  14    0.000      2.0000E-10  5.0000E-10  5.0000E-10  5.0000E-10  5.0000E-10  5.0000E-10  2.0000E-10  1.0000E-10   0.000    
  15    0.000       0.000      8.0000E-10  8.0000E-10  8.0000E-10  8.0000E-10   0.000       0.000       0.000       0.000    

                  ET RATE =  1.500000E-07

 USING ET EXTINCTION DEPTH FROM PREVIOUS STRESS PERIOD. CURRENT PERIOD IS:      31

 USING EXTINCTION WATER CONTENT FROM PREVIOUS STRESS PERIOD. CURRENT PERIOD IS:      31

 USING AIR ENTRY PRESSURE FROM PREVIOUS STRESS PERIOD. CURRENT PERIOD IS:      31

 USING ROOT PRESSURE HEAD FROM PREVIOUS STRESS PERIOD. CURRENT PERIOD IS:      31

 USING ROOT ACTIVITY FROM PREVIOUS STRESS PERIOD. CURRENT PERIOD IS:      31

 PROCESSING AG STRESS PERIOD DATA

 READING AG STRESS PERIOD DATA

 READING IRRIGATION WELL

 END PROCESSING AG STRESS PERIOD DATA OPTIONS
 
 SOLVING FOR HEAD 
                                                   Max.-Head-Change                         Max.-Flux-Residual
  Residual-Control   Outer-Iter.   Inner-Iter.     Column Row Layer    Maximum-Head-Change  Column Row Layer    Maximum-Flux-Residual          L2-NORM 
          0                 1           2             4    7     1      -0.5728599974E-01       4    7    1        -0.2995004265E+01      0.7105939430E+01
          0                 2           2             4    7     1       0.5572334475E-02       4    7    1         0.2994984908E+00      0.7105863003E+00
          0                 3           2             4    7     1      -0.3794555816E-03       4    7    1        -0.2096491949E-01      0.4974111722E-01
          0                 4           1             4    7     1       0.1509889142E-04       4    7    1         0.8574663200E-03      0.2034414559E-02

    ------------------------------------------------
       NWT REQUIRED            4 OUTER ITERATIONS 
       AND A TOTAL OF          7 INNER ITERATIONS.
    ------------------------------------------------

 NO OUTPUT CONTROL FOR STRESS PERIOD   31   TIME STEP    1
 
 SOLVING FOR HEAD 
                                                   Max.-Head-Change                         Max.-Flux-Residual
  Residual-Control   Outer-Iter.   Inner-Iter.     Column Row Layer    Maximum-Head-Change  Column Row Layer    Maximum-Flux-Residual          L2-NORM 
          0                 1           2             4    7     1      -0.5691031085E-01       4    7    1        -0.2976501632E+01      0.6982767851E+01
          0                 2           2             4    7     1       0.5535787819E-02       4    7    1         0.2976480628E+00      0.6982693900E+00
          0                 3           2             4    7     1      -0.3769669128E-03       4    7    1        -0.2083539101E-01      0.4887893246E-01
          0                 4           1             4    7     1       0.1499986510E-04       4    7    1         0.8521686066E-03      0.1999148180E-02

    ------------------------------------------------
       NWT REQUIRED            4 OUTER ITERATIONS 
       AND A TOTAL OF          7 INNER ITERATIONS.
    ------------------------------------------------

 NO OUTPUT CONTROL FOR STRESS PERIOD   31   TIME STEP    2
 
 SOLVING FOR HEAD 
                                                   Max.-Head-Change                         Max.-Flux-Residual
  Residual-Control   Outer-Iter.   Inner-Iter.     Column Row Layer    Maximum-Head-Change  Column Row Layer    Maximum-Flux-Residual          L2-NORM 
          0                 1           2             4    7     1      -0.5651695935E-01       4    7    1        -0.2956985093E+01      0.6865448616E+01
          0                 2           2             4    7     1       0.5497523347E-02       4    7    1         0.2956962629E+00      0.6865377033E+00
          0                 3           2             4    7     1      -0.3743612645E-03       4    7    1        -0.2069876633E-01      0.4805771200E-01
          0                 4           1             4    7     1       0.1489618384E-04       4    7    1         0.8465806468E-03      0.1965564361E-02

    ------------------------------------------------
       NWT REQUIRED            4 OUTER ITERATIONS 
       AND A TOTAL OF          7 INNER ITERATIONS.
    ------------------------------------------------

 NO OUTPUT CONTROL FOR STRESS PERIOD   31   TIME STEP    3
 
 SOLVING FOR HEAD 
                                                   Max.-Head-Change                         Max.-Flux-Residual
  Residual-Control   Outer-Iter.   Inner-Iter.     Column Row Layer    Maximum-Head-Change  Column Row Layer    Maximum-Flux-Residual          L2-NORM 
          0                 1           2             4    7     1      -0.5610759653E-01       4    7    1        -0.2936545421E+01      0.6753549796E+01
          0                 2           2             4    7     1       0.5457701666E-02       4    7    1         0.2936521669E+00      0.6753480425E+00
          0                 3           2             4    7     1      -0.3716495735E-03       4    7    1        -0.2055568077E-01      0.4727443356E-01
          0                 4           1             4    7     1       0.1478828280E-04       4    7    1         0.8407284197E-03      0.1933528187E-02

    ------------------------------------------------
       NWT REQUIRED            4 OUTER ITERATIONS 
       AND A TOTAL OF          7 INNER ITERATIONS.
    ------------------------------------------------

 NO OUTPUT CONTROL FOR STRESS PERIOD   31   TIME STEP    4
 
 SOLVING FOR HEAD 
                                                   Max.-Head-Change                         Max.-Flux-Residual
  Residual-Control   Outer-Iter.   Inner-Iter.     Column Row Layer    Maximum-Head-Change  Column Row Layer    Maximum-Flux-Residual          L2-NORM 
          0                 1           2             4    7     1      -0.5568376885E-01       4    7    1        -0.2915268237E+01      0.6646682105E+01
          0                 2           2             4    7     1       0.5416473185E-02       4    7    1         0.2915243359E+00      0.6646614886E+00
          0                 3           2             4    7     1      -0.3688420825E-03       4    7    1        -0.2040673361E-01      0.4652637195E-01
          0                 4           1             4    7     1       0.1467656976E-04       4    7    1         0.8346364559E-03      0.1902932605E-02

    ------------------------------------------------
       NWT REQUIRED            4 OUTER ITERATIONS 
       AND A TOTAL OF          7 INNER ITERATIONS.
    ------------------------------------------------

 NO OUTPUT CONTROL FOR STRESS PERIOD   31   TIME STEP    5
 
 SOLVING FOR HEAD 
                                                   Max.-Head-Change                         Max.-Flux-Residual
  Residual-Control   Outer-Iter.   Inner-Iter.     Column Row Layer    Maximum-Head-Change  Column Row Layer    Maximum-Flux-Residual          L2-NORM 
          0                 1           2             4    7     1      -0.5524733816E-01       4    7    1        -0.2893255740E+01      0.6544509719E+01
          0                 2           2             4    7     1       0.5374018990E-02       4    7    1         0.2893229881E+00      0.6544444524E+00
          0                 3           2             4    7     1      -0.3659511230E-03       4    7    1        -0.2025264014E-01      0.4581117749E-01
          0                 4           1             4    7     1       0.1456153576E-04       4    7    1         0.8283340260E-03      0.1873679932E-02

    ------------------------------------------------
       NWT REQUIRED            4 OUTER ITERATIONS 
       AND A TOTAL OF          7 INNER ITERATIONS.
    ------------------------------------------------

 NO OUTPUT CONTROL FOR STRESS PERIOD   31   TIME STEP    6
 
 SOLVING FOR HEAD 
                                                   Max.-Head-Change                         Max.-Flux-Residual
  Residual-Control   Outer-Iter.   Inner-Iter.     Column Row Layer    Maximum-Head-Change  Column Row Layer    Maximum-Flux-Residual          L2-NORM 
          0                 1           2             4    7     1      -0.5479951421E-01       4    7    1        -0.2870575115E+01      0.6446704875E+01
          0                 2           2             4    7     1       0.5330456742E-02       4    7    1         0.2870548414E+00      0.6446641677E+00
          0                 3           2             4    7     1      -0.3629847072E-03       4    7    1        -0.2009387060E-01      0.4512655508E-01
          0                 4           1             4    7     1       0.1444349935E-04       4    7    1         0.8218403432E-03      0.1845678781E-02

    ------------------------------------------------
       NWT REQUIRED            4 OUTER ITERATIONS 
       AND A TOTAL OF          7 INNER ITERATIONS.
    ------------------------------------------------

 NO OUTPUT CONTROL FOR STRESS PERIOD   31   TIME STEP    7
 
 SOLVING FOR HEAD 
                                                   Max.-Head-Change                         Max.-Flux-Residual
  Residual-Control   Outer-Iter.   Inner-Iter.     Column Row Layer    Maximum-Head-Change  Column Row Layer    Maximum-Flux-Residual          L2-NORM 
          0                 1           2             4    7     1      -0.5434169607E-01       4    7    1        -0.2847303766E+01      0.6352979226E+01
          0                 2           2             4    7     1       0.5285922515E-02       4    7    1         0.2847276348E+00      0.6352917903E+00
          0                 3           2             4    7     1      -0.3599521010E-03       4    7    1        -0.1993096673E-01      0.4447048740E-01
          0                 4           1             4    7     1       0.1432282927E-04       4    7    1         0.8151775628E-03      0.1818845424E-02

    ------------------------------------------------
       NWT REQUIRED            4 OUTER ITERATIONS 
       AND A TOTAL OF          7 INNER ITERATIONS.
    ------------------------------------------------

 NO OUTPUT CONTROL FOR STRESS PERIOD   31   TIME STEP    8
 
 SOLVING FOR HEAD 
                                                   Max.-Head-Change                         Max.-Flux-Residual
  Residual-Control   Outer-Iter.   Inner-Iter.     Column Row Layer    Maximum-Head-Change  Column Row Layer    Maximum-Flux-Residual          L2-NORM 
          0                 1           2             4    7     1      -0.5387518965E-01       4    7    1        -0.2823514232E+01      0.6263057984E+01
          0                 2           2             4    7     1       0.5240543691E-02       4    7    1         0.2823486212E+00      0.6263805815E+00
          0                 3           2             4    7     1      -0.3568619798E-03       4    7    1        -0.1976443629E-01      0.4384669214E-01
          0                 4           1             4    7     1       0.1419987058E-04       4    7    1         0.8083664707E-03      0.1793332180E-02

    ------------------------------------------------
       NWT REQUIRED            4 OUTER ITERATIONS 
       AND A TOTAL OF          7 INNER ITERATIONS.
    ------------------------------------------------

 NO OUTPUT CONTROL FOR STRESS PERIOD   31   TIME STEP    9
 
 SOLVING FOR HEAD 
                                                   Max.-Head-Change                         Max.-Flux-Residual
  Residual-Control   Outer-Iter.   Inner-Iter.     Column Row Layer    Maximum-Head-Change  Column Row Layer    Maximum-Flux-Residual          L2-NORM 
          0                 1           2             4    7     1      -0.5340133228E-01       4    7    1        -0.2799281540E+01      0.6176692822E+01
          0                 2           2             4    7     1       0.5194449794E-02       4    7    1         0.2799253022E+00      0.6176652957E+00
          0                 3           2             4    7     1      -0.3537231558E-03       4    7    1        -0.1959480434E-01      0.4323660472E-01
          0                 4           1             4    7     1       0.1407497371E-04       4    7    1         0.8014285042E-03      0.1768379902E-02

    ------------------------------------------------
       NWT REQUIRED            4 OUTER ITERATIONS 
       AND A TOTAL OF          7 INNER ITERATIONS.
    ------------------------------------------------

 NO OUTPUT CONTROL FOR STRESS PERIOD   31   TIME STEP   10
 
 SOLVING FOR HEAD 
                                                   Max.-Head-Change                         Max.-Flux-Residual
  Residual-Control   Outer-Iter.   Inner-Iter.     Column Row Layer    Maximum-Head-Change  Column Row Layer    Maximum-Flux-Residual          L2-NORM 
          0                 1           2             4    7     1      -0.5292097910E-01       4    7    1        -0.2774653058E+01      0.6093105542E+01
          0                 2           2             4    7     1       0.5147724101E-02       4    7    1         0.2774624139E+00      0.6093068345E+00
          0                 3           2             4    7     1      -0.3505413147E-03       4    7    1        -0.1942240246E-01      0.4265151633E-01
          0                 4           1             4    7     1       0.1394836490E-04       4    7    1         0.7943772384E-03      0.1744449445E-02

    ------------------------------------------------
       NWT REQUIRED            4 OUTER ITERATIONS 
       AND A TOTAL OF          7 INNER ITERATIONS.
    ------------------------------------------------

 NO OUTPUT CONTROL FOR STRESS PERIOD   31   TIME STEP   11
 
 SOLVING FOR HEAD 
                                                   Max.-Head-Change                         Max.-Flux-Residual
  Residual-Control   Outer-Iter.   Inner-Iter.     Column Row Layer    Maximum-Head-Change  Column Row Layer    Maximum-Flux-Residual          L2-NORM 
          0                 1           2             4    7     1      -0.5243532015E-01       4    7    1        -0.2749695120E+01      0.6012719361E+01
          0                 2           2             4    7     1       0.5100482276E-02       4    7    1         0.2749665888E+00      0.6012682400E+00
          0                 3           2             4    7     1      -0.3473243265E-03       4    7    1        -0.1924769494E-01      0.4208881501E-01
          0                 4           1             4    7     1       0.1382035820E-04       4    7    1         0.7872316978E-03      0.1721434489E-02

    ------------------------------------------------
       NWT REQUIRED            4 OUTER ITERATIONS 
       AND A TOTAL OF          7 INNER ITERATIONS.
    ------------------------------------------------

 NO OUTPUT CONTROL FOR STRESS PERIOD   31   TIME STEP   12
 
 SOLVING FOR HEAD 
                                                   Max.-Head-Change                         Max.-Flux-Residual
  Residual-Control   Outer-Iter.   Inner-Iter.     Column Row Layer    Maximum-Head-Change  Column Row Layer    Maximum-Flux-Residual          L2-NORM 
          0                 1           2             4    7     1      -0.5194533757E-01       4    7    1        -0.2724462101E+01      0.5935342488E+01
          0                 2           2             4    7     1       0.5052819997E-02       4    7    1         0.2724432635E+00      0.5935305790E+00
          0                 3           2             4    7     1      -0.3440787052E-03       4    7    1        -0.1907106230E-01      0.4154717744E-01
          0                 4           1             4    7     1       0.1369121209E-04       4    7    1         0.7800074266E-03      0.1699281701E-02

    ------------------------------------------------
       NWT REQUIRED            4 OUTER ITERATIONS 
       AND A TOTAL OF          7 INNER ITERATIONS.
    ------------------------------------------------

 NO OUTPUT CONTROL FOR STRESS PERIOD   31   TIME STEP   13
 
 SOLVING FOR HEAD 
                                                   Max.-Head-Change                         Max.-Flux-Residual
  Residual-Control   Outer-Iter.   Inner-Iter.     Column Row Layer    Maximum-Head-Change  Column Row Layer    Maximum-Flux-Residual          L2-NORM 
          0                 1           2             4    7     1      -0.5145193975E-01       4    7    1        -0.2699004916E+01      0.5860788765E+01
          0                 2           2             4    7     1       0.5004825617E-02       4    7    1         0.2698975290E+00      0.5860752439E+00
          0                 3           2             4    7     1      -0.3408104680E-03       4    7    1        -0.1889286096E-01      0.4102530855E-01
          0                 4           1             4    7     1       0.1356116579E-04       4    7    1         0.7727189748E-03      0.1677935139E-02

    ------------------------------------------------
       NWT REQUIRED            4 OUTER ITERATIONS 
       AND A TOTAL OF          7 INNER ITERATIONS.
    ------------------------------------------------

 NO OUTPUT CONTROL FOR STRESS PERIOD   31   TIME STEP   14
 
 SOLVING FOR HEAD 
                                                   Max.-Head-Change                         Max.-Flux-Residual
  Residual-Control   Outer-Iter.   Inner-Iter.     Column Row Layer    Maximum-Head-Change  Column Row Layer    Maximum-Flux-Residual          L2-NORM 
          0                 1           2             4    7     1      -0.5095583888E-01       4    7    1        -0.2673363335E+01      0.5788901002E+01
          0                 2           2             4    7     1       0.4956568402E-02       4    7    1         0.2673333615E+00      0.5788864991E+00
          0                 3           2             4    7     1      -0.3375243317E-03       4    7    1        -0.1871336925E-01      0.4052209167E-01
          0                 4           1             4    7     1       0.1343040732E-04       4    7    1         0.7653777427E-03      0.1657353748E-02

    ------------------------------------------------
       NWT REQUIRED            4 OUTER ITERATIONS 
       AND A TOTAL OF          7 INNER ITERATIONS.
    ------------------------------------------------

 NO OUTPUT CONTROL FOR STRESS PERIOD   31   TIME STEP   15
 
 SOLVING FOR HEAD 
                                                   Max.-Head-Change                         Max.-Flux-Residual
  Residual-Control   Outer-Iter.   Inner-Iter.     Column Row Layer    Maximum-Head-Change  Column Row Layer    Maximum-Flux-Residual          L2-NORM 
          0                 1           2             4    7     1      -0.5045796388E-01       4    7    1        -0.2647588945E+01      0.5719526639E+01
          0                 2           2             4    7     1       0.4908138701E-02       4    7    1         0.2647559191E+00      0.5719490984E+00
          0                 3           2             4    7     1      -0.3342264490E-03       4    7    1        -0.1853294824E-01      0.4003647033E-01
          0                 4           1             4    7     1       0.1329918120E-04       4    7    1         0.7579985122E-03      0.1637494267E-02

    ------------------------------------------------
       NWT REQUIRED            4 OUTER ITERATIONS 
       AND A TOTAL OF          7 INNER ITERATIONS.
    ------------------------------------------------

 NO OUTPUT CONTROL FOR STRESS PERIOD   31   TIME STEP   16
 
 SOLVING FOR HEAD 
                                                   Max.-Head-Change                         Max.-Flux-Residual
  Residual-Control   Outer-Iter.   Inner-Iter.     Column Row Layer    Maximum-Head-Change  Column Row Layer    Maximum-Flux-Residual          L2-NORM 
          0                 1           2             4    7     1      -0.4995903508E-01       4    7    1        -0.2621722580E+01      0.5652519215E+01
          0                 2           2             4    7     1       0.4859606573E-02       4    7    1         0.2621692846E+00      0.5652483976E+00
          0                 3           2             4    7     1      -0.3309215904E-03       4    7    1        -0.1835188372E-01      0.3956742167E-01
          0                 4           1             4    7     1       0.1316767773E-04       4    7    1         0.7505929625E-03      0.1618308593E-02

    ------------------------------------------------
       NWT REQUIRED            4 OUTER ITERATIONS 
       AND A TOTAL OF          7 INNER ITERATIONS.
    ------------------------------------------------

 NO OUTPUT CONTROL FOR STRESS PERIOD   31   TIME STEP   17
 
 SOLVING FOR HEAD 
                                                   Max.-Head-Change                         Max.-Flux-Residual
  Residual-Control   Outer-Iter.   Inner-Iter.     Column Row Layer    Maximum-Head-Change  Column Row Layer    Maximum-Flux-Residual          L2-NORM 
          0                 1           2             4    7     1      -0.4945959467E-01       4    7    1        -0.2595794261E+01      0.5587759839E+01
          0                 2           2             4    7     1       0.4811024754E-02       4    7    1         0.2595764598E+00      0.5587725060E+00
          0                 3           2             4    7     1      -0.3276133481E-03       4    7    1        -0.1817038584E-01      0.3911411080E-01
          0                 4           1             4    7     1       0.1303604014E-04       4    7    1         0.7431697081E-03      0.1599789177E-02

    ------------------------------------------------
       NWT REQUIRED            4 OUTER ITERATIONS 
       AND A TOTAL OF          7 INNER ITERATIONS.
    ------------------------------------------------

 NO OUTPUT CONTROL FOR STRESS PERIOD   31   TIME STEP   18
 
 SOLVING FOR HEAD 
                                                   Max.-Head-Change                         Max.-Flux-Residual
  Residual-Control   Outer-Iter.   Inner-Iter.     Column Row Layer    Maximum-Head-Change  Column Row Layer    Maximum-Flux-Residual          L2-NORM 
          0                 1           2             4    7     1      -0.4896040020E-01       4    7    1        -0.2569846757E+01      0.5525121233E+01
          0                 2           2             4    7     1       0.4762466923E-02       4    7    1         0.2569817208E+00      0.5525086940E+00
          0                 3           2             4    7     1      -0.3243067379E-03       4    7    1        -0.1798875393E-01      0.3867564300E-01
          0                 4           1             4    7     1       0.1290446702E-04       4    7    1         0.7357409456E-03      0.1581835640E-02

    ------------------------------------------------
       NWT REQUIRED            4 OUTER ITERATIONS 
       AND A TOTAL OF          7 INNER ITERATIONS.
    ------------------------------------------------

 NO OUTPUT CONTROL FOR STRESS PERIOD   31   TIME STEP   19
 
 SOLVING FOR HEAD 
                                                   Max.-Head-Change                         Max.-Flux-Residual
  Residual-Control   Outer-Iter.   Inner-Iter.     Column Row Layer    Maximum-Head-Change  Column Row Layer    Maximum-Flux-Residual          L2-NORM 
          0                 1           2             4    7     1      -0.4846188606E-01       4    7    1        -0.2543904692E+01      0.5464498370E+01
          0                 2           2             4    7     1       0.4713975327E-02       4    7    1         0.2543875297E+00      0.5464464449E+00
          0                 3           2             4    7     1      -0.3210046377E-03       4    7    1        -0.1780716033E-01      0.3825128485E-01
          0                 4           1             4    7     1       0.1277307351E-04       4    7    1         0.7283137620E-03      0.1564479571E-02

    ------------------------------------------------
       NWT REQUIRED            4 OUTER ITERATIONS 
       AND A TOTAL OF          7 INNER ITERATIONS.
    ------------------------------------------------

 NO OUTPUT CONTROL FOR STRESS PERIOD   31   TIME STEP   20
 
 SOLVING FOR HEAD 
                                                   Max.-Head-Change                         Max.-Flux-Residual
  Residual-Control   Outer-Iter.   Inner-Iter.     Column Row Layer    Maximum-Head-Change  Column Row Layer    Maximum-Flux-Residual          L2-NORM 
          0                 1           2             4    7     1      -0.4796471670E-01       4    7    1        -0.2518005241E+01      0.5405785838E+01
          0                 2           2             4    7     1       0.4665614594E-02       4    7    1         0.2517976036E+00      0.5405752434E+00
          0                 3           2             4    7     1      -0.3177114482E-03       4    7    1        -0.1762586525E-01      0.3784029822E-01
          0                 4           1             4    7     1       0.1264203423E-04       4    7    1         0.7208987713E-03      0.1547669482E-02

    ------------------------------------------------
       NWT REQUIRED            4 OUTER ITERATIONS 
       AND A TOTAL OF          7 INNER ITERATIONS.
    ------------------------------------------------

 NO OUTPUT CONTROL FOR STRESS PERIOD   31   TIME STEP   21
 
 SOLVING FOR HEAD 
                                                   Max.-Head-Change                         Max.-Flux-Residual
  Residual-Control   Outer-Iter.   Inner-Iter.     Column Row Layer    Maximum-Head-Change  Column Row Layer    Maximum-Flux-Residual          L2-NORM 
          0                 1           2             4    7     1      -0.4746923493E-01       4    7    1        -0.2492168206E+01      0.5348889280E+01
          0                 2           2             4    7     1       0.4617418063E-02       4    7    1         0.2492139222E+00      0.5348856360E+00
          0                 3           2             4    7     1      -0.3144294397E-03       4    7    1        -0.1744500725E-01      0.3744202882E-01
          0                 4           1             4    7     1       0.1251143993E-04       4    7    1         0.7135016724E-03      0.1531384245E-02

    ------------------------------------------------
       NWT REQUIRED            4 OUTER ITERATIONS 
       AND A TOTAL OF          7 INNER ITERATIONS.
    ------------------------------------------------

 NO OUTPUT CONTROL FOR STRESS PERIOD   31   TIME STEP   22
 
 SOLVING FOR HEAD 
                                                   Max.-Head-Change                         Max.-Flux-Residual
  Residual-Control   Outer-Iter.   Inner-Iter.     Column Row Layer    Maximum-Head-Change  Column Row Layer    Maximum-Flux-Residual          L2-NORM 
          0                 1           2             4    7     1      -0.4697602440E-01       4    7    1        -0.2466426009E+01      0.5293727330E+01
          0                 2           2             4    7     1       0.4569442504E-02       4    7    1         0.2466397273E+00      0.5293694931E+00
          0                 3           2             4    7     1      -0.3111624785E-03       4    7    1        -0.1726481330E-01      0.3705589510E-01
          0                 4           1             4    7     1       0.1238144487E-04       4    7    1         0.7061317428E-03      0.1515593684E-02

    ------------------------------------------------
       NWT REQUIRED            4 OUTER ITERATIONS 
       AND A TOTAL OF          7 INNER ITERATIONS.
    ------------------------------------------------

 NO OUTPUT CONTROL FOR STRESS PERIOD   31   TIME STEP   23
 
 SOLVING FOR HEAD 
                                                   Max.-Head-Change                         Max.-Flux-Residual
  Residual-Control   Outer-Iter.   Inner-Iter.     Column Row Layer    Maximum-Head-Change  Column Row Layer    Maximum-Flux-Residual          L2-NORM 
          0                 1           2             4    7     1      -0.4648548274E-01       4    7    1        -0.2440801589E+01      0.5240213021E+01
          0                 2           2             4    7     1       0.4521726588E-02       4    7    1         0.2440773127E+00      0.5240181087E+00
          0                 3           2             4    7     1      -0.3079131976E-03       4    7    1        -0.1708544395E-01      0.3668129723E-01
          0                 4           1             4    7     1       0.1225215289E-04       4    7    1         0.6987955251E-03      0.1500265595E-02

    ------------------------------------------------
       NWT REQUIRED            4 OUTER ITERATIONS 
       AND A TOTAL OF          7 INNER ITERATIONS.
    ------------------------------------------------

 NO OUTPUT CONTROL FOR STRESS PERIOD   31   TIME STEP   24
 
 SOLVING FOR HEAD 
                                                   Max.-Head-Change                         Max.-Flux-Residual
  Residual-Control   Outer-Iter.   Inner-Iter.     Column Row Layer    Maximum-Head-Change  Column Row Layer    Maximum-Flux-Residual          L2-NORM 
          0                 1           2             4    7     1      -0.4599783926E-01       4    7    1        -0.2415308239E+01      0.5188267030E+01
          0                 2           2             4    7     1       0.4474292619E-02       4    7    1         0.2415280073E+00      0.5188235627E+00
          0                 3           2             4    7     1      -0.3046831159E-03       4    7    1        -0.1690699221E-01      0.3631768040E-01
          0                 4           1             4    7     1       0.1212362490E-04       4    7    1         0.6914968403E-03      0.1485397331E-02

    ------------------------------------------------
       NWT REQUIRED            4 OUTER ITERATIONS 
       AND A TOTAL OF          7 INNER ITERATIONS.
    ------------------------------------------------

 NO OUTPUT CONTROL FOR STRESS PERIOD   31   TIME STEP   25
 
 SOLVING FOR HEAD 
                                                   Max.-Head-Change                         Max.-Flux-Residual
  Residual-Control   Outer-Iter.   Inner-Iter.     Column Row Layer    Maximum-Head-Change  Column Row Layer    Maximum-Flux-Residual          L2-NORM 
          0                 1           2             4    7     1      -0.4551356125E-01       4    7    1        -0.2389972495E+01      0.5137813817E+01
          0                 2           2             4    7     1       0.4427186045E-02       4    7    1         0.2389944642E+00      0.5137782882E+00
          0                 3           2             4    7     1      -0.3014753279E-03       4    7    1        -0.1672964381E-01      0.3596450729E-01
          0                 4           1             4    7     1       0.1199598385E-04       4    7    1         0.6842432790E-03      0.1470950056E-02

    ------------------------------------------------
       NWT REQUIRED            4 OUTER ITERATIONS 
       AND A TOTAL OF          7 INNER ITERATIONS.
    ------------------------------------------------

 NO OUTPUT CONTROL FOR STRESS PERIOD   31   TIME STEP   26
 
 SOLVING FOR HEAD 
                                                   Max.-Head-Change                         Max.-Flux-Residual
  Residual-Control   Outer-Iter.   Inner-Iter.     Column Row Layer    Maximum-Head-Change  Column Row Layer    Maximum-Flux-Residual          L2-NORM 
          0                 1           2             4    7     1      -0.4503294930E-01       4    7    1        -0.2364811261E+01      0.5088808982E+01
          0                 2           2             4    7     1       0.4380436102E-02       4    7    1         0.2364783738E+00      0.5088778510E+00
          0                 3           2             4    7     1      -0.2982918256E-03       4    7    1        -0.1655351711E-01      0.3562147881E-01
          0                 4           1             4    7     1       0.1186930964E-04       4    7    1         0.6770396958E-03      0.1456919220E-02

    ------------------------------------------------
       NWT REQUIRED            4 OUTER ITERATIONS 
       AND A TOTAL OF          7 INNER ITERATIONS.
    ------------------------------------------------

 NO OUTPUT CONTROL FOR STRESS PERIOD   31   TIME STEP   27
 
 SOLVING FOR HEAD 
                                                   Max.-Head-Change                         Max.-Flux-Residual
  Residual-Control   Outer-Iter.   Inner-Iter.     Column Row Layer    Maximum-Head-Change  Column Row Layer    Maximum-Flux-Residual          L2-NORM 
          0                 1           2             4    7     1      -0.4455626741E-01       4    7    1        -0.2339840123E+01      0.5041162048E+01
          0                 2           2             4    7     1       0.4334068467E-02       4    7    1         0.2339812945E+00      0.5041132126E+00
          0                 3           2             4    7     1      -0.2951343561E-03       4    7    1        -0.1637872114E-01      0.3528795103E-01
          0                 4           1             4    7     1       0.1174367066E-04       4    7    1         0.6698905156E-03      0.1443278672E-02

    ------------------------------------------------
       NWT REQUIRED            4 OUTER ITERATIONS 
       AND A TOTAL OF          7 INNER ITERATIONS.
    ------------------------------------------------

 NO OUTPUT CONTROL FOR STRESS PERIOD   31   TIME STEP   28
 
 SOLVING FOR HEAD 
                                                   Max.-Head-Change                         Max.-Flux-Residual
  Residual-Control   Outer-Iter.   Inner-Iter.     Column Row Layer    Maximum-Head-Change  Column Row Layer    Maximum-Flux-Residual          L2-NORM 
          0                 1           2             4    7     1      -0.4408375902E-01       4    7    1        -0.2315072770E+01      0.4994835550E+01
          0                 2           2             4    7     1       0.4288106818E-02       4    7    1         0.2315045948E+00      0.4994806148E+00
          0                 3           2             4    7     1      -0.2920045332E-03       4    7    1        -0.1620535177E-01      0.3496367260E-01
          0                 4           1             4    7     1       0.1161913230E-04       4    7    1         0.6627997102E-03      0.1430015406E-02

    ------------------------------------------------
       NWT REQUIRED            4 OUTER ITERATIONS 
       AND A TOTAL OF          7 INNER ITERATIONS.
    ------------------------------------------------

 NO OUTPUT CONTROL FOR STRESS PERIOD   31   TIME STEP   29
 
 SOLVING FOR HEAD 
                                                   Max.-Head-Change                         Max.-Flux-Residual
  Residual-Control   Outer-Iter.   Inner-Iter.     Column Row Layer    Maximum-Head-Change  Column Row Layer    Maximum-Flux-Residual          L2-NORM 
          0                 1           2             4    7     1      -0.4361550428E-01       4    7    1        -0.2290514507E+01      0.4949763249E+01
          0                 2           2             4    7     1       0.4242558947E-02       4    7    1         0.2290488052E+00      0.4949734299E+00
          0                 3           2             4    7     1      -0.2889028866E-03       4    7    1        -0.1603344605E-01      0.3464816672E-01
          0                 4           1             4    7     1       0.1149571493E-04       4    7    1         0.6557687595E-03      0.1417109580E-02

    ------------------------------------------------
       NWT REQUIRED            4 OUTER ITERATIONS 
       AND A TOTAL OF          7 INNER ITERATIONS.
    ------------------------------------------------

 NO OUTPUT CONTROL FOR STRESS PERIOD   31   TIME STEP   30



 STREAM LISTING     PERIOD     31   STEP       30

 LAYER ROW COL. STREAM  RCH.  FLOW INTO     FLOW TO   FLOW OUT OF   OVRLND.     DIRECT     STREAM       STREAM     STREAM     STREAM   STREAMBED  STREAMBED
                SEG.NO.  NO.  STRM. RCH.    AQUIFER    STRM. RCH.    RUNOFF     PRECIP       ET          HEAD       DEPTH      WIDTH   CONDCTNC.   GRADIENT

   1    1    1     1     1    1.9000E+01  2.1427E-01   1.8786E+01  0.000E+00  0.000E+00  0.000E+00  1.09413E+03  1.082E+00  1.166E+01  5.249E-02  1.361E+00
   1    2    2     1     2    1.8786E+01  3.3054E-01   1.8455E+01  0.000E+00  0.000E+00  0.000E+00  1.08914E+03  1.077E+00  1.158E+01  8.107E-02  1.359E+00
   1    3    3     1     3    1.8455E+01  2.8064E-01   1.8175E+01  0.000E+00  0.000E+00  0.000E+00  1.08349E+03  1.072E+00  1.149E+01  6.892E-02  1.357E+00
   1    3    4     1     4    1.8175E+01  2.5740E-01   1.7917E+01  0.000E+00  0.000E+00  0.000E+00  1.07848E+03  1.068E+00  1.140E+01  6.328E-02  1.356E+00
   1    4    5     2     1    1.5917E+01  3.0542E-01   1.5612E+01  0.000E+00  0.000E+00  0.000E+00  1.07285E+03  9.157E-01  1.200E+01  7.800E-02  1.305E+00
   1    5    6     2     2    1.5612E+01  2.3438E-01   1.5377E+01  0.000E+00  0.000E+00  0.000E+00  1.06742E+03  9.063E-01  1.200E+01  6.000E-02  1.302E+00
   1    6    6     2     3    1.5377E+01  2.3388E-01   1.5143E+01  0.000E+00  0.000E+00  0.000E+00  1.06269E+03  8.980E-01  1.200E+01  6.000E-02  1.299E+00
   1    7    6     2     4    1.5143E+01  2.3338E-01   1.4910E+01  0.000E+00  0.000E+00  0.000E+00  1.05797E+03  8.897E-01  1.200E+01  6.000E-02  1.297E+00
   1    8    6     2     5    1.4910E+01  2.3289E-01   1.4677E+01  0.000E+00  0.000E+00  0.000E+00  1.05324E+03  8.814E-01  1.200E+01  6.000E-02  1.294E+00
   1    3    5     3     1    2.0000E+00  2.8252E-01   1.7175E+00  0.000E+00  0.000E+00  0.000E+00  1.07555E+03  1.909E+00  9.636E+00  7.227E-02  1.955E+00
   1    3    6     3     2    1.7175E+00  2.4905E-01   1.4684E+00  0.000E+00  0.000E+00  0.000E+00  1.07264E+03  1.727E+00  8.909E+00  6.682E-02  1.864E+00
   1    3    7     3     3    1.4684E+00  1.9718E-01   1.2712E+00  0.000E+00  0.000E+00  0.000E+00  1.06987E+03  1.555E+00  8.218E+00  5.547E-02  1.777E+00
   1    4    8     3     4    1.2712E+00  2.2567E-01   1.0456E+00  0.000E+00  0.000E+00  0.000E+00  1.06682E+03  1.364E+00  7.455E+00  6.709E-02  1.682E+00
   1    5    8     3     5    1.0456E+00  1.5790E-01   8.8768E-01  0.000E+00  0.000E+00  0.000E+00  1.06362E+03  1.164E+00  6.655E+00  4.991E-02  1.582E+00
   1    6    8     3     6    8.8768E-01  5.5980E-02   8.3170E-01  0.000E+00  0.000E+00  0.000E+00  1.06158E+03  1.036E+00  6.145E+00  1.844E-02  1.518E+00
   1    5   10     4     1    1.0000E+01  9.0919E-02   9.9091E+00  0.000E+00  0.000E+00  0.000E+00  1.07836E+03  6.368E-01  1.000E+01  2.500E-02  1.212E+00
   1    5    9     4     2    9.9091E+00  1.8158E-01   9.7275E+00  0.000E+00  0.000E+00  0.000E+00  1.07154E+03  6.315E-01  1.000E+01  5.000E-02  1.211E+00
   1    6    8     4     3    9.7275E+00  1.2689E-01   9.6006E+00  0.000E+00  0.000E+00  0.000E+00  1.06381E+03  6.256E-01  1.000E+01  3.500E-02  1.209E+00
   1    6    8     5     1    1.0432E+01  2.2686E-01   1.0205E+01  0.000E+00  0.000E+00  0.000E+00  1.05868E+03  6.790E-01  1.542E+01  6.166E-02  1.226E+00
   1    7    7     5     2    1.0205E+01  2.7894E-01   9.9265E+00  0.000E+00  0.000E+00  0.000E+00  1.05417E+03  6.732E-01  1.519E+01  7.594E-02  1.224E+00
   1    8    7     5     3    9.9265E+00  1.9221E-01   9.7343E+00  0.000E+00  0.000E+00  0.000E+00  1.04992E+03  6.676E-01  1.497E+01  5.241E-02  1.223E+00
   1    8    6     5     4    9.7343E+00  1.3577E-01   9.5985E+00  0.000E+00  0.000E+00  0.000E+00  1.04691E+03  6.637E-01  1.482E+01  3.706E-02  1.221E+00
   1    9    6     6     1    2.4276E+01  2.5176E-01   2.4024E+01  0.000E+00  0.000E+00  0.000E+00  1.04392E+03  1.196E+00  1.200E+01  6.000E-02  1.399E+00
   1   10    7     6     2    2.4024E+01  2.5131E-01   2.3773E+01  0.000E+00  0.000E+00  0.000E+00  1.03937E+03  1.188E+00  1.200E+01  6.000E-02  1.396E+00
   1   11    7     6     3    2.3773E+01  2.5086E-01   2.3522E+01  0.000E+00  0.000E+00  0.000E+00  1.03482E+03  1.181E+00  1.200E+01  6.000E-02  1.394E+00
   1   12    7     6     4    2.3522E+01  2.5041E-01   2.3271E+01  0.000E+00  0.000E+00  0.000E+00  1.03026E+03  1.173E+00  1.200E+01  6.000E-02  1.391E+00
   1   13    7     6     5    2.3271E+01  6.4830E-03   2.3265E+01  0.000E+00  0.000E+00  0.000E+00  1.02708E+03  1.170E+00  1.200E+01  2.400E-02  9.004E-02
   1   14    9     7     1    1.5000E+02  1.3482E+00   1.4865E+02  0.000E+00  0.000E+00  0.000E+00  1.03987E+03  2.288E+00  5.529E+01  5.593E-01  8.035E-01
   1   13    8     7     2    1.4865E+02  1.9054E+00   1.4675E+02  0.000E+00  0.000E+00  0.000E+00  1.03478E+03  2.279E+00  5.526E+01  6.148E-01  1.033E+00
   1   13    7     7     3    1.4675E+02  1.6085E+00   1.4514E+02  0.000E+00  0.000E+00  0.000E+00  1.02969E+03  2.270E+00  5.521E+01  5.584E-01  9.602E-01
   1   13    6     8     1    1.6840E+02  1.0502E+00   1.6735E+02  0.000E+00  0.000E+00  0.000E+00  1.02481E+03  2.938E+00  4.261E+01  4.342E-01  8.063E-01
   1   13    5     8     2    1.6735E+02  2.9589E-01   1.6706E+02  0.000E+00  0.000E+00  0.000E+00  1.01856E+03  2.934E+00  4.254E+01  4.335E-01  2.275E-01
   1   13    4     8     3    1.6706E+02 -2.0346E+00   1.6909E+02  0.000E+00  0.000E+00  0.000E+00  1.01231E+03  2.940E+00  4.262E+01  4.344E+00 -1.561E-01
   1   13    3     8     4    1.6909E+02 -3.4514E+00   1.7254E+02  0.000E+00  0.000E+00  0.000E+00  1.00608E+03  2.958E+00  4.288E+01  4.370E+00 -2.633E-01
   1   13    2     8     5    1.7254E+02 -2.5305E+00   1.7507E+02  0.000E+00  0.000E+00  0.000E+00  9.99852E+02  2.977E+00  4.316E+01  4.399E+00 -1.918E-01
   1   13    1     8     6    1.7507E+02 -1.9715E+00   1.7704E+02  0.000E+00  0.000E+00  0.000E+00  9.94866E+02  2.991E+00  4.337E+01  2.652E+00 -2.478E-01





UNSATURATED ZONE PACKAGE VOLUMETRIC BUDGET FOR  TIME STEP    30 STRESS PERIOD   31
  ------------------------------------------------------------------------------



     CUMULATIVE VOLUMES      L**3       RATES FOR THIS TIME STEP      L**3/T
     ------------------                 ------------------------

           IN:                                      IN:
           ---                                      ---
        INFILTRATION =  1108022312.2372          INFILTRATION =          23.3175

          OUT:                                     OUT:
          ----                                     ----
              UZF ET =   963170786.9360                UZF ET =          23.3175
        UZF RECHARGE =   144779183.7052          UZF RECHARGE =       0.0000E+00

            IN - OUT =       72341.5960              IN - OUT =       0.0000E+00

          STORAGE:                                 STORAGE:
          --------                                 --------
      STORAGE CHANGE =       72353.9446        STORAGE CHANGE =       8.5238E-15

 PERCENT DISCREPANCY IS DIFFERENCE BETWEEN IN-OUT MINUS CHANGE IN STORAGE
 DIVIDED BY THE AVERAGE OF IN AND OUT TIMES 100

 PERCENT DISCREPANCY =           0.00     PERCENT DISCREPANCY =           0.00






1
  VOLUMETRIC BUDGET FOR AGRICULTURAL FIELDS AT  END OF TIME STEP   30, STRESS PERIOD  31
  ------------------------------------------------------------------------------

     CUMULATIVE VOLUMES      L**3       RATES FOR THIS TIME STEP      L**3/T
     ------------------                 ------------------------

           IN:                                      IN:
           ---                                      ---
               AG WELLS  =  1041079872.0000                 AG WELLS  =          22.4700
      DIVERSION SEGMENTS =           0.0000        DIVERSION SEGMENTS =           0.0000
           GW IRRIGATION =           0.0000             GW IRRIGATION =           0.0000
           SW IRRIGATION =           0.0000             SW IRRIGATION =           0.0000
        SYSTEM LOSSES GW =           0.0000          SYSTEM LOSSES GW =           0.0000
        SYSTEM LOSSES SW =           0.0000          SYSTEM LOSSES SW =           0.0000

                TOTAL IN =  1041079872.0000                  TOTAL IN =          22.4700

          OUT:                                     OUT:
          ----                                     ----
               AG WELLS  =           0.0000                 AG WELLS  =           0.0000
      DIVERSION SEGMENTS =           0.0000        DIVERSION SEGMENTS =           0.0000
           GW IRRIGATION =  1041079872.0000             GW IRRIGATION =          22.4700
           SW IRRIGATION =           0.0000             SW IRRIGATION =           0.0000
        SYSTEM LOSSES GW =           0.0000          SYSTEM LOSSES GW =           0.0000
        SYSTEM LOSSES SW =           0.0000          SYSTEM LOSSES SW =           0.0000

               TOTAL OUT =  1041079872.0000                 TOTAL OUT =          22.4700

                IN - OUT =           0.0000                  IN - OUT =           0.0000

     PERCENT DISCREPANCY =           0.00         PERCENT DISCREPANCY =           0.00



1
  VOLUMETRIC BUDGET FOR ENTIRE MODEL AT END OF TIME STEP   30, STRESS PERIOD  31
  ------------------------------------------------------------------------------

     CUMULATIVE VOLUMES      L**3       RATES FOR THIS TIME STEP      L**3/T
     ------------------                 ------------------------

           IN:                                      IN:
           ---                                      ---
             STORAGE     =  1344852096.0000               STORAGE     =          20.5924
       CONSTANT HEAD     =           0.0000         CONSTANT HEAD     =           0.0000
     HEAD DEP BOUNDS     =    22561210.0000       HEAD DEP BOUNDS     =           0.2866
      STREAM LEAKAGE     =   971995776.0000        STREAM LEAKAGE     =          11.9432
        UZF RECHARGE     =   144779152.0000          UZF RECHARGE     =           0.0000
               GW ET     =           0.0000                 GW ET     =           0.0000
     SURFACE LEAKAGE     =           0.0000       SURFACE LEAKAGE     =           0.0000
           AG WELLS      =           0.0000             AG WELLS      =           0.0000

                TOTAL IN =  2484188160.0000                  TOTAL IN =          32.8222

          OUT:                                     OUT:
          ----                                     ----
             STORAGE     =   588252864.0000               STORAGE     =       7.5154E-02
       CONSTANT HEAD     =           0.0000         CONSTANT HEAD     =           0.0000
     HEAD DEP BOUNDS     =    23150674.0000       HEAD DEP BOUNDS     =           0.2892
      STREAM LEAKAGE     =   814192768.0000        STREAM LEAKAGE     =           9.9880
        UZF RECHARGE     =           0.0000          UZF RECHARGE     =           0.0000
               GW ET     =    17516202.0000                 GW ET     =           0.0000
     SURFACE LEAKAGE     =           0.0000       SURFACE LEAKAGE     =           0.0000
           AG WELLS      =  1041079872.0000             AG WELLS      =          22.4700

               TOTAL OUT =  2484192256.0000                 TOTAL OUT =          32.8223

                IN - OUT =       -4096.0000                  IN - OUT =      -6.8665E-05

     PERCENT DISCREPANCY =          -0.00         PERCENT DISCREPANCY =          -0.00






         TIME SUMMARY AT END OF TIME STEP   30 IN STRESS PERIOD   31
                    SECONDS     MINUTES      HOURS       DAYS        YEARS
                    -----------------------------------------------------------
   TIME STEP LENGTH  87667.      1461.1      24.352      1.0147     2.77799E-03
 STRESS PERIOD TIME 2.63000E+06  43833.      730.56      30.440     8.33397E-02
         TOTAL TIME 7.89864E+07 1.31644E+06  21941.      914.20      2.5029    
1
1
                            STRESS PERIOD NO.   32, LENGTH =   2630000.    
                            -----------------------------------------------

                              NUMBER OF TIME STEPS =    30

                               MULTIPLIER FOR DELT =     1.000

                            INITIAL TIME STEP SIZE =   87666.66    

 REUSING NON-PARAMETER GHB CELLS FROM LAST STRESS PERIOD

      2 GHB CELLS

 REUSING STREAM SEGMENT DATA FROM LAST STRESS PERIOD



            AREAL INFILTRATION RATE
 READING ON UNIT   19 WITH FORMAT: (FREE)              

            1           2           3           4           5           6           7           8           9          10
 ........................................................................................................................
   1   1.0000E-10  2.0000E-10   0.000       0.000       0.000       0.000       0.000       0.000       0.000       0.000    
   2   2.0000E-10  1.0000E-10  2.0000E-10   0.000       0.000      8.0000E-10  8.0000E-10  5.0000E-10   0.000       0.000    
   3    0.000      5.0000E-10  1.0000E-10  1.0000E-10  8.0000E-10  8.0000E-10  5.0000E-10  5.0000E-10   0.000       0.000    
   4   8.0000E-10  5.0000E-10  1.0000E-10  1.0000E-10  1.0000E-10  1.0000E-10  1.0000E-10  1.0000E-10  2.0000E-10   0.000    
   5   8.0000E-10  5.0000E-10  1.0000E-10  1.0000E-10  1.0000E-10  1.0000E-10  1.0000E-10  1.0000E-10  1.0000E-10  1.0000E-10
   6   8.0000E-10  5.0000E-10  5.0000E-10  2.0000E-10  2.0000E-10  1.0000E-10  1.0000E-10  1.0000E-10  1.0000E-10  5.0000E-10
   7   8.0000E-10  5.0000E-10  5.0000E-10  2.0000E-10  2.0000E-10  1.0000E-10  1.0000E-10  2.0000E-10  2.0000E-10   0.000    
   8    0.000      5.0000E-10  5.0000E-10  2.0000E-10  2.0000E-10  1.0000E-10  1.0000E-10  2.0000E-10  5.0000E-10   0.000    
   9    0.000      5.0000E-10  5.0000E-10  2.0000E-10  2.0000E-10  1.0000E-10  1.0000E-10  2.0000E-10  5.0000E-10   0.000    
  10    0.000      5.0000E-10  5.0000E-10  2.0000E-10  2.0000E-10  1.0000E-10  1.0000E-10  2.0000E-10  5.0000E-10  8.0000E-10
  11    0.000      1.0000E-10  1.0000E-10  1.0000E-10  1.0000E-10  1.0000E-10  1.0000E-10  2.0000E-10  5.0000E-10   0.000    
  12   1.0000E-10  1.0000E-10  1.0000E-10  1.0000E-10  1.0000E-10  1.0000E-10  1.0000E-10  1.0000E-10  2.0000E-10   0.000    
  13   1.0000E-10  1.0000E-10  2.0000E-10  2.0000E-10  2.0000E-10  2.0000E-10  2.0000E-10  1.0000E-10  1.0000E-10   0.000    
  14    0.000      2.0000E-10  5.0000E-10  5.0000E-10  5.0000E-10  5.0000E-10  5.0000E-10  2.0000E-10  1.0000E-10   0.000    
  15    0.000       0.000      8.0000E-10  8.0000E-10  8.0000E-10  8.0000E-10   0.000       0.000       0.000       0.000    

                  ET RATE =  4.000000E-07

 USING ET EXTINCTION DEPTH FROM PREVIOUS STRESS PERIOD. CURRENT PERIOD IS:      32

 USING EXTINCTION WATER CONTENT FROM PREVIOUS STRESS PERIOD. CURRENT PERIOD IS:      32

 USING AIR ENTRY PRESSURE FROM PREVIOUS STRESS PERIOD. CURRENT PERIOD IS:      32

 USING ROOT PRESSURE HEAD FROM PREVIOUS STRESS PERIOD. CURRENT PERIOD IS:      32

 USING ROOT ACTIVITY FROM PREVIOUS STRESS PERIOD. CURRENT PERIOD IS:      32

 PROCESSING AG STRESS PERIOD DATA

 READING AG STRESS PERIOD DATA

 READING IRRIGATION WELL

 END PROCESSING AG STRESS PERIOD DATA OPTIONS
 
 SOLVING FOR HEAD 
                                                   Max.-Head-Change                         Max.-Flux-Residual
  Residual-Control   Outer-Iter.   Inner-Iter.     Column Row Layer    Maximum-Head-Change  Column Row Layer    Maximum-Flux-Residual          L2-NORM 
          0                 1           2             4    7     1      -0.1628661241E+00       4    7    1        -0.8516191203E+01      0.1994235810E+02
          0                 2           2             5    8     1      -0.1688100329E-02       5    8    1        -0.9314637894E-01      0.2428964704E+00
          0                 3           2             4    7     1      -0.6115009957E-01       4    7    1        -0.3192636715E+01      0.7810377399E+01
          0                 4           2             4    7     1      -0.2740576755E-02       5    8    1        -0.1436583268E+00      0.3513679319E+00
          0                 5           2             4    7     1      -0.7571690870E-03       4    7    1        -0.3953141239E-01      0.9673305192E-01
          0                 6           1             4    7     1       0.5954347085E-04       4    7    1         0.3196013606E-02      0.7820552177E-02

    ------------------------------------------------
       NWT REQUIRED            6 OUTER ITERATIONS 
       AND A TOTAL OF         11 INNER ITERATIONS.
    ------------------------------------------------

 NO OUTPUT CONTROL FOR STRESS PERIOD   32   TIME STEP    1
 
 SOLVING FOR HEAD 
                                                   Max.-Head-Change                         Max.-Flux-Residual
  Residual-Control   Outer-Iter.   Inner-Iter.     Column Row Layer    Maximum-Head-Change  Column Row Layer    Maximum-Flux-Residual          L2-NORM 
          0                 1           2             4    7     1      -0.1613198725E+00       4    7    1        -0.8440339335E+01      0.1944342785E+02
          0                 2           2             5    8     1      -0.2309761755E-02       5    8    1        -0.1273965275E+00      0.3135974574E+00
          0                 3           2             4    7     1      -0.6113479026E-01       4    7    1        -0.3191879344E+01      0.7804905419E+01
          0                 4           2             4    7     1      -0.2742131070E-02       5    8    1        -0.1439973341E+00      0.3519107182E+00
          0                 5           2             4    7     1      -0.7570163639E-03       4    7    1        -0.3952386397E-01      0.9667867754E-01
          0                 6           1             4    7     1       0.5952857799E-04       4    7    1         0.3195259116E-02      0.7815116715E-02

    ------------------------------------------------
       NWT REQUIRED            6 OUTER ITERATIONS 
       AND A TOTAL OF         11 INNER ITERATIONS.
    ------------------------------------------------

 NO OUTPUT CONTROL FOR STRESS PERIOD   32   TIME STEP    2
 
 SOLVING FOR HEAD 
                                                   Max.-Head-Change                         Max.-Flux-Residual
  Residual-Control   Outer-Iter.   Inner-Iter.     Column Row Layer    Maximum-Head-Change  Column Row Layer    Maximum-Flux-Residual          L2-NORM 
          0                 1           2             4    7     1      -0.1596953871E+00       4    7    1        -0.8360005250E+01      0.1897418043E+02
          0                 2           2             5    8     1      -0.2896660509E-02       5    8    1        -0.1597016234E+00      0.3818108028E+00
          0                 3           2             4    7     1      -0.6111871080E-01       4    7    1        -0.3191077151E+01      0.7799623329E+01
          0                 4           2             4    7     1      -0.2743764144E-02       5    8    1        -0.1443171393E+00      0.3524350790E+00
          0                 5           2             4    7     1      -0.7568559693E-03       4    7    1        -0.3951586690E-01      0.9662617082E-01
          0                 6           1             4    7     1       0.5951293627E-04       4    7    1         0.3194459768E-02      0.7809867869E-02

    ------------------------------------------------
       NWT REQUIRED            6 OUTER ITERATIONS 
       AND A TOTAL OF         11 INNER ITERATIONS.
    ------------------------------------------------

 NO OUTPUT CONTROL FOR STRESS PERIOD   32   TIME STEP    3
 
 SOLVING FOR HEAD 
                                                   Max.-Head-Change                         Max.-Flux-Residual
  Residual-Control   Outer-Iter.   Inner-Iter.     Column Row Layer    Maximum-Head-Change  Column Row Layer    Maximum-Flux-Residual          L2-NORM 
          0                 1           2             4    7     1      -0.1580000232E+00       4    7    1        -0.8275593853E+01      0.1853240733E+02
          0                 2           2             5    8     1      -0.3451238734E-02       5    8    1        -0.1901995232E+00      0.4472654388E+00
          0                 3           2             4    7     1      -0.6110193383E-01       4    7    1        -0.3190234181E+01      0.7794521722E+01
          0                 4           2             4    7     1      -0.2745468584E-02       5    8    1        -0.1446191021E+00      0.3529418695E+00
          0                 5           2             4    7     1      -0.7566886264E-03       4    7    1        -0.3950746160E-01      0.9657544091E-01
          0                 6           1             4    7     1       0.5949661566E-04       4    7    1         0.3193619553E-02      0.7804797181E-02

    ------------------------------------------------
       NWT REQUIRED            6 OUTER ITERATIONS 
       AND A TOTAL OF         11 INNER ITERATIONS.
    ------------------------------------------------

 NO OUTPUT CONTROL FOR STRESS PERIOD   32   TIME STEP    4
 
 SOLVING FOR HEAD 
                                                   Max.-Head-Change                         Max.-Flux-Residual
  Residual-Control   Outer-Iter.   Inner-Iter.     Column Row Layer    Maximum-Head-Change  Column Row Layer    Maximum-Flux-Residual          L2-NORM 
          0                 1           2             4    7     1      -0.1562411079E+00       4    7    1        -0.8187508390E+01      0.1811610796E+02
          0                 2           2             5    8     1      -0.3975767570E-02       5    8    1        -0.2190184180E+00      0.5099552101E+00
          0                 3           2             4    7     1      -0.6108453169E-01       4    7    1        -0.3189354465E+01      0.7789591942E+01
          0                 4           2             4    7     1      -0.2747237020E-02       5    8    1        -0.1449044866E+00      0.3534318832E+00
          0                 5           2             4    7     1      -0.7565150581E-03       4    7    1        -0.3949868843E-01      0.9652640391E-01
          0                 6           1             4    7     1       0.5947968755E-04       4    7    1         0.3192742574E-02      0.7799894687E-02

    ------------------------------------------------
       NWT REQUIRED            6 OUTER ITERATIONS 
       AND A TOTAL OF         11 INNER ITERATIONS.
    ------------------------------------------------

 NO OUTPUT CONTROL FOR STRESS PERIOD   32   TIME STEP    5
 
 SOLVING FOR HEAD 
                                                   Max.-Head-Change                         Max.-Flux-Residual
  Residual-Control   Outer-Iter.   Inner-Iter.     Column Row Layer    Maximum-Head-Change  Column Row Layer    Maximum-Flux-Residual          L2-NORM 
          0                 1           2             4    7     1      -0.1544253957E+00       4    7    1        -0.8096121425E+01      0.1772344627E+02
          0                 2           2             5    8     1      -0.4472320974E-02       5    8    1        -0.2462752834E+00      0.5699670290E+00
          0                 3           2             4    7     1      -0.6106657107E-01       4    7    1        -0.3188441728E+01      0.7784825772E+01
          0                 4           2             4    7     1      -0.2749062663E-02       5    8    1        -0.1451744468E+00      0.3539058807E+00
          0                 5           2             4    7     1      -0.7563359282E-03       4    7    1        -0.3948958458E-01      0.9647898030E-01
          0                 6           1             4    7     1       0.5946221606E-04       4    7    1         0.3191832525E-02      0.7795153992E-02

    ------------------------------------------------
       NWT REQUIRED            6 OUTER ITERATIONS 
       AND A TOTAL OF         11 INNER ITERATIONS.
    ------------------------------------------------

 NO OUTPUT CONTROL FOR STRESS PERIOD   32   TIME STEP    6
 
 SOLVING FOR HEAD 
                                                   Max.-Head-Change                         Max.-Flux-Residual
  Residual-Control   Outer-Iter.   Inner-Iter.     Column Row Layer    Maximum-Head-Change  Column Row Layer    Maximum-Flux-Residual          L2-NORM 
          0                 1           2             4    7     1      -0.1525592221E+00       4    7    1        -0.8001783140E+01      0.1735274111E+02
          0                 2           2             5    8     1      -0.4942820653E-02       5    8    1        -0.2720784371E+00      0.6274210814E+00
          0                 3           2             4    7     1      -0.6104811453E-01       4    7    1        -0.3187499469E+01      0.7780215480E+01
          0                 4           2             4    7     1      -0.2750939141E-02       5    8    1        -0.1454300509E+00      0.3543645841E+00
          0                 5           2             4    7     1      -0.7561518605E-03       4    7    1        -0.3948018507E-01      0.9643309494E-01
          0                 6           1             4    7     1       0.5944426200E-04       4    7    1         0.3190892875E-02      0.7790567966E-02

    ------------------------------------------------
       NWT REQUIRED            6 OUTER ITERATIONS 
       AND A TOTAL OF         11 INNER ITERATIONS.
    ------------------------------------------------

 NO OUTPUT CONTROL FOR STRESS PERIOD   32   TIME STEP    7
 
 SOLVING FOR HEAD 
                                                   Max.-Head-Change                         Max.-Flux-Residual
  Residual-Control   Outer-Iter.   Inner-Iter.     Column Row Layer    Maximum-Head-Change  Column Row Layer    Maximum-Flux-Residual          L2-NORM 
          0                 1           2             4    7     1      -0.1506485183E+00       4    7    1        -0.7904821983E+01      0.1700245004E+02
          0                 2           2             5    8     1      -0.5389035162E-02       5    8    1        -0.2965275197E+00      0.6824472900E+00
          0                 3           2             4    7     1      -0.6102922062E-01       4    7    1        -0.3186530971E+01      0.7775753788E+01
          0                 4           2             4    7     1      -0.2752860491E-02       5    8    1        -0.1456722818E+00      0.3548086779E+00
          0                 5           2             4    7     1      -0.7559634385E-03       4    7    1        -0.3947052267E-01      0.9638867681E-01
          0                 6           1             4    7     1       0.5942588315E-04       4    7    1         0.3189926948E-02      0.7786126516E-02

    ------------------------------------------------
       NWT REQUIRED            6 OUTER ITERATIONS 
       AND A TOTAL OF         11 INNER ITERATIONS.
    ------------------------------------------------

 NO OUTPUT CONTROL FOR STRESS PERIOD   32   TIME STEP    8
 
 SOLVING FOR HEAD 
                                                   Max.-Head-Change                         Max.-Flux-Residual
  Residual-Control   Outer-Iter.   Inner-Iter.     Column Row Layer    Maximum-Head-Change  Column Row Layer    Maximum-Flux-Residual          L2-NORM 
          0                 1           2             4    7     1      -0.1486988361E+00       4    7    1        -0.7805545457E+01      0.1667117117E+02
          0                 2           2             5    8     1      -0.5812606709E-02       5    8    1        -0.3197150125E+00      0.7351688153E+00
          0                 3           2             4    7     1      -0.6100994428E-01       4    7    1        -0.3185539307E+01      0.7771433968E+01
          0                 4           2             4    7     1      -0.2754821117E-02       5    8    1        -0.1459020514E+00      0.3552387829E+00
          0                 5           2             4    7     1      -0.7557712104E-03       4    7    1        -0.3946062820E-01      0.9634566174E-01
          0                 6           1             4    7     1       0.5940713196E-04       4    7    1         0.3188937795E-02      0.7781826371E-02

    ------------------------------------------------
       NWT REQUIRED            6 OUTER ITERATIONS 
       AND A TOTAL OF         11 INNER ITERATIONS.
    ------------------------------------------------

 NO OUTPUT CONTROL FOR STRESS PERIOD   32   TIME STEP    9
 
 SOLVING FOR HEAD 
                                                   Max.-Head-Change                         Max.-Flux-Residual
  Residual-Control   Outer-Iter.   Inner-Iter.     Column Row Layer    Maximum-Head-Change  Column Row Layer    Maximum-Flux-Residual          L2-NORM 
          0                 1           2             4    7     1      -0.1467156268E+00       4    7    1        -0.7704255957E+01      0.1635761496E+02
          0                 2           2             5    8     1      -0.6215028874E-02       5    8    1        -0.3417245171E+00      0.7855448649E+00
          0                 3           2             4    7     1      -0.6099033874E-01       4    7    1        -0.3184527501E+01      0.7767249215E+01
          0                 4           2             4    7     1      -0.2756815606E-02       5    8    1        -0.1461201872E+00      0.3556556122E+00
          0                 5           2             4    7     1      -0.7555757067E-03       4    7    1        -0.3945053182E-01      0.9630397799E-01
          0                 6           1             4    7     1       0.5938806107E-04       4    7    1         0.3187928465E-02      0.7777659283E-02

    ------------------------------------------------
       NWT REQUIRED            6 OUTER ITERATIONS 
       AND A TOTAL OF         11 INNER ITERATIONS.
    ------------------------------------------------

 NO OUTPUT CONTROL FOR STRESS PERIOD   32   TIME STEP   10
 
 SOLVING FOR HEAD 
                                                   Max.-Head-Change                         Max.-Flux-Residual
  Residual-Control   Outer-Iter.   Inner-Iter.     Column Row Layer    Maximum-Head-Change  Column Row Layer    Maximum-Flux-Residual          L2-NORM 
          0                 1           2             4    7     1      -0.1447035864E+00       4    7    1        -0.7601214384E+01      0.1606068263E+02
          0                 2           2             5    8     1      -0.6597703014E-02       5    8    1        -0.3626361558E+00      0.8342682453E+00
          0                 3           2             4    7     1      -0.6097045142E-01       4    7    1        -0.3183498161E+01      0.7763194332E+01
          0                 4           2             4    7     1      -0.2758839109E-02       5    8    1        -0.1463274738E+00      0.3560595512E+00
          0                 5           2             4    7     1      -0.7553773990E-03       4    7    1        -0.3944025962E-01      0.9626358397E-01
          0                 6           1             4    7     1       0.5936871552E-04       4    7    1         0.3186901514E-02      0.7773620999E-02

    ------------------------------------------------
       NWT REQUIRED            6 OUTER ITERATIONS 
       AND A TOTAL OF         11 INNER ITERATIONS.
    ------------------------------------------------

 NO OUTPUT CONTROL FOR STRESS PERIOD   32   TIME STEP   11
 
 SOLVING FOR HEAD 
                                                   Max.-Head-Change                         Max.-Flux-Residual
  Residual-Control   Outer-Iter.   Inner-Iter.     Column Row Layer    Maximum-Head-Change  Column Row Layer    Maximum-Flux-Residual          L2-NORM 
          0                 1           2             4    7     1      -0.1426673386E+00       4    7    1        -0.7496678319E+01      0.1577922102E+02
          0                 2           2             5    8     1      -0.6961911035E-02       5    8    1        -0.3825207068E+00      0.8808651745E+00
          0                 3           2             4    7     1      -0.6095032706E-01       4    7    1        -0.3182453860E+01      0.7759262916E+01
          0                 4           2             4    7     1      -0.2760887073E-02       5    8    1        -0.1465246147E+00      0.3564513046E+00
          0                 5           2             4    7     1      -0.7551767350E-03       4    7    1        -0.3942983737E-01      0.9622440998E-01
          0                 6           1             4    7     1       0.5934914017E-04       4    7    1         0.3185859587E-02      0.7769704699E-02

    ------------------------------------------------
       NWT REQUIRED            6 OUTER ITERATIONS 
       AND A TOTAL OF         11 INNER ITERATIONS.
    ------------------------------------------------

 NO OUTPUT CONTROL FOR STRESS PERIOD   32   TIME STEP   12
 
 SOLVING FOR HEAD 
                                                   Max.-Head-Change                         Max.-Flux-Residual
  Residual-Control   Outer-Iter.   Inner-Iter.     Column Row Layer    Maximum-Head-Change  Column Row Layer    Maximum-Flux-Residual          L2-NORM 
          0                 1           2             4    7     1      -0.1406111933E+00       4    7    1        -0.7390887897E+01      0.1551221734E+02
          0                 2           2             5    8     1      -0.7308863580E-02       5    8    1        -0.4014465529E+00      0.9256365383E+00
          0                 3           2             4    7     1      -0.6093000848E-01       4    7    1        -0.3181396999E+01      0.7755449739E+01
          0                 4           2             4    7     1      -0.2762955139E-02       5    8    1        -0.1467122833E+00      0.3568313517E+00
          0                 5           2             4    7     1      -0.7549741399E-03       4    7    1        -0.3941928902E-01      0.9618640675E-01
          0                 6           1             4    7     1       0.5932937543E-04       4    7    1         0.3184805018E-02      0.7765905393E-02

    ------------------------------------------------
       NWT REQUIRED            6 OUTER ITERATIONS 
       AND A TOTAL OF         11 INNER ITERATIONS.
    ------------------------------------------------

 NO OUTPUT CONTROL FOR STRESS PERIOD   32   TIME STEP   13
 
 SOLVING FOR HEAD 
                                                   Max.-Head-Change                         Max.-Flux-Residual
  Residual-Control   Outer-Iter.   Inner-Iter.     Column Row Layer    Maximum-Head-Change  Column Row Layer    Maximum-Flux-Residual          L2-NORM 
          0                 1           2             4    7     1      -0.1385390115E+00       4    7    1        -0.7284059142E+01      0.1525874603E+02
          0                 2           2             5    8     1      -0.7639644268E-02       5    8    1        -0.4194745220E+00      0.9686844088E+00
          0                 3           2             4    7     1      -0.6090953378E-01       4    7    1        -0.3180329738E+01      0.7751749637E+01
          0                 4           2             4    7     1      -0.2765039421E-02       5    8    1        -0.1468910797E+00      0.3572001928E+00
          0                 5           2             4    7     1      -0.7547699945E-03       4    7    1        -0.3940863622E-01      0.9614952359E-01
          0                 6           1             4    7     1       0.5930945911E-04       4    7    1         0.3183740003E-02      0.7762217633E-02

    ------------------------------------------------
       NWT REQUIRED            6 OUTER ITERATIONS 
       AND A TOTAL OF         11 INNER ITERATIONS.
    ------------------------------------------------

 NO OUTPUT CONTROL FOR STRESS PERIOD   32   TIME STEP   14
 
 SOLVING FOR HEAD 
                                                   Max.-Head-Change                         Max.-Flux-Residual
  Residual-Control   Outer-Iter.   Inner-Iter.     Column Row Layer    Maximum-Head-Change  Column Row Layer    Maximum-Flux-Residual          L2-NORM 
          0                 1           2             4    7     1      -0.1364545095E+00       4    7    1        -0.7176399476E+01      0.1501796071E+02
          0                 2           2             5    8     1      -0.7955296104E-02       5    8    1        -0.4366631405E+00      0.1010103876E+01
          0                 3           2             4    7     1      -0.6088893963E-01       4    7    1        -0.3179254151E+01      0.7748157794E+01
          0                 4           2             4    7     1      -0.2767136181E-02       5    8    1        -0.1470615816E+00      0.3575582968E+00
          0                 5           2             4    7     1      -0.7545646639E-03       4    7    1        -0.3939789970E-01      0.9611371335E-01
          0                 6           1             4    7     1       0.5928942663E-04       4    7    1         0.3182666605E-02      0.7758637392E-02

    ------------------------------------------------
       NWT REQUIRED            6 OUTER ITERATIONS 
       AND A TOTAL OF         11 INNER ITERATIONS.
    ------------------------------------------------

 NO OUTPUT CONTROL FOR STRESS PERIOD   32   TIME STEP   15
 
 SOLVING FOR HEAD 
                                                   Max.-Head-Change                         Max.-Flux-Residual
  Residual-Control   Outer-Iter.   Inner-Iter.     Column Row Layer    Maximum-Head-Change  Column Row Layer    Maximum-Flux-Residual          L2-NORM 
          0                 1           2             4    7     1      -0.1343611262E+00       4    7    1        -0.7068101565E+01      0.1478908682E+02
          0                 2           2             5    8     1      -0.8256742012E-02       5    8    1        -0.4530641501E+00      0.1049982349E+01
          0                 3           2             4    7     1      -0.6086825995E-01       4    7    1        -0.3178172163E+01      0.7744669764E+01
          0                 4           2             4    7     1      -0.2769241963E-02       5    8    1        -0.1472242995E+00      0.3579060971E+00
          0                 5           2             4    7     1      -0.7543584865E-03       4    7    1        -0.3938709870E-01      0.9607893229E-01
          0                 6           1             4    7     1       0.5926931082E-04       4    7    1         0.3181586758E-02      0.7755159957E-02

    ------------------------------------------------
       NWT REQUIRED            6 OUTER ITERATIONS 
       AND A TOTAL OF         11 INNER ITERATIONS.
    ------------------------------------------------

 NO OUTPUT CONTROL FOR STRESS PERIOD   32   TIME STEP   16
 
 SOLVING FOR HEAD 
                                                   Max.-Head-Change                         Max.-Flux-Residual
  Residual-Control   Outer-Iter.   Inner-Iter.     Column Row Layer    Maximum-Head-Change  Column Row Layer    Maximum-Flux-Residual          L2-NORM 
          0                 1           2             4    7     1      -0.1322620407E+00       4    7    1        -0.6959343678E+01      0.1457139224E+02
          0                 2           2             5    8     1      -0.8544891931E-02       5    8    1        -0.4687285231E+00      0.1088403483E+01
          0                 3           2             4    7     1      -0.6084752612E-01       4    7    1        -0.3177085556E+01      0.7741281126E+01
          0                 4           2             4    7     1      -0.2771353566E-02       5    8    1        -0.1473797369E+00      0.3582440269E+00
          0                 5           2             4    7     1      -0.7541517742E-03       4    7    1        -0.3937625104E-01      0.9604513699E-01
          0                 6           1             4    7     1       0.5924914221E-04       4    7    1         0.3180502219E-02      0.7751781606E-02

    ------------------------------------------------
       NWT REQUIRED            6 OUTER ITERATIONS 
       AND A TOTAL OF         11 INNER ITERATIONS.
    ------------------------------------------------

 NO OUTPUT CONTROL FOR STRESS PERIOD   32   TIME STEP   17
 
 SOLVING FOR HEAD 
                                                   Max.-Head-Change                         Max.-Flux-Residual
  Residual-Control   Outer-Iter.   Inner-Iter.     Column Row Layer    Maximum-Head-Change  Column Row Layer    Maximum-Flux-Residual          L2-NORM 
          0                 1           2             4    7     1      -0.1301601856E+00       4    7    1        -0.6850290624E+01      0.1436421900E+02
          0                 2           2             5    8     1      -0.8820533111E-02       5    8    1        -0.4837003239E+00      0.1125444514E+01
          0                 3           2             4    7     1      -0.6082676705E-01       4    7    1        -0.3175995979E+01      0.7737987869E+01
          0                 4           2             4    7     1      -0.2773468042E-02       5    8    1        -0.1475283286E+00      0.3585724791E+00
          0                 5           2             4    7     1      -0.7539448160E-03       4    7    1        -0.3936537321E-01      0.9601228794E-01
          0                 6           1             4    7     1       0.5922894952E-04       4    7    1         0.3179414672E-02      0.7748496632E-02

    ------------------------------------------------
       NWT REQUIRED            6 OUTER ITERATIONS 
       AND A TOTAL OF         11 INNER ITERATIONS.
    ------------------------------------------------

 NO OUTPUT CONTROL FOR STRESS PERIOD   32   TIME STEP   18
 
 SOLVING FOR HEAD 
                                                   Max.-Head-Change                         Max.-Flux-Residual
  Residual-Control   Outer-Iter.   Inner-Iter.     Column Row Layer    Maximum-Head-Change  Column Row Layer    Maximum-Flux-Residual          L2-NORM 
          0                 1           2             4    7     1      -0.1280581323E+00       4    7    1        -0.6741087182E+01      0.1416694275E+02
          0                 2           2             5    8     1      -0.9084450024E-02       5    8    1        -0.4980234883E+00      0.1161179352E+01
          0                 3           2             4    7     1      -0.6080600811E-01       4    7    1        -0.3174904878E+01      0.7734785992E+01
          0                 4           2             4    7     1      -0.2775582803E-02       5    8    1        -0.1476705084E+00      0.3588918476E+00
          0                 5           2             4    7     1      -0.7537378650E-03       4    7    1        -0.3935447970E-01      0.9598034577E-01
          0                 6           1             4    7     1       0.5920875719E-04       4    7    1         0.3178325572E-02      0.7745302874E-02

    ------------------------------------------------
       NWT REQUIRED            6 OUTER ITERATIONS 
       AND A TOTAL OF         11 INNER ITERATIONS.
    ------------------------------------------------

 NO OUTPUT CONTROL FOR STRESS PERIOD   32   TIME STEP   19
 
 SOLVING FOR HEAD 
                                                   Max.-Head-Change                         Max.-Flux-Residual
  Residual-Control   Outer-Iter.   Inner-Iter.     Column Row Layer    Maximum-Head-Change  Column Row Layer    Maximum-Flux-Residual          L2-NORM 
          0                 1           2             4    7     1      -0.1259586352E+00       4    7    1        -0.6631888398E+01      0.1397900190E+02
          0                 2           2             5    8     1      -0.9337328519E-02       5    8    1        -0.5117363560E+00      0.1195674438E+01
          0                 3           2             4    7     1      -0.6078527647E-01       4    7    1        -0.3173813804E+01      0.7731671951E+01
          0                 4           2             4    7     1      -0.2777695078E-02       5    8    1        -0.1478066548E+00      0.3592024810E+00
          0                 5           2             4    7     1      -0.7535311906E-03       4    7    1        -0.3934358599E-01      0.9594927557E-01
          0                 6           1             4    7     1       0.5918859102E-04       4    7    1         0.3177236418E-02      0.7742196240E-02

    ------------------------------------------------
       NWT REQUIRED            6 OUTER ITERATIONS 
       AND A TOTAL OF         11 INNER ITERATIONS.
    ------------------------------------------------

 NO OUTPUT CONTROL FOR STRESS PERIOD   32   TIME STEP   20
 
 SOLVING FOR HEAD 
                                                   Max.-Head-Change                         Max.-Flux-Residual
  Residual-Control   Outer-Iter.   Inner-Iter.     Column Row Layer    Maximum-Head-Change  Column Row Layer    Maximum-Flux-Residual          L2-NORM 
          0                 1           2             4    7     1      -0.1238635712E+00       4    7    1        -0.6522800827E+01      0.1379985744E+02
          0                 2           2             5    8     1      -0.9579731595E-02       5    8    1        -0.5248752685E+00      0.1229050798E+01
          0                 3           2             4    7     1      -0.6076459062E-01       4    7    1        -0.3172723821E+01      0.7728642297E+01
          0                 4           2             4    7     1      -0.2779802978E-02       5    8    1        -0.1479371082E+00      0.3595047152E+00
          0                 5           2             4    7     1      -0.7533249780E-03       4    7    1        -0.3933270277E-01      0.9591904408E-01
          0                 6           1             4    7     1       0.5916846912E-04       4    7    1         0.3176148304E-02      0.7739173291E-02

    ------------------------------------------------
       NWT REQUIRED            6 OUTER ITERATIONS 
       AND A TOTAL OF         11 INNER ITERATIONS.
    ------------------------------------------------

 NO OUTPUT CONTROL FOR STRESS PERIOD   32   TIME STEP   21
 
 SOLVING FOR HEAD 
                                                   Max.-Head-Change                         Max.-Flux-Residual
  Residual-Control   Outer-Iter.   Inner-Iter.     Column Row Layer    Maximum-Head-Change  Column Row Layer    Maximum-Flux-Residual          L2-NORM 
          0                 1           2             4    7     1      -0.1217754356E+00       4    7    1        -0.6413965229E+01      0.1362897809E+02
          0                 2           2             5    8     1      -0.9812383207E-02       5    8    1        -0.5374759786E+00      0.1261309336E+01
          0                 3           2             4    7     1      -0.6074397516E-01       4    7    1        -0.3171636338E+01      0.7725693574E+01
          0                 4           2             4    7     1      -0.2781903993E-02       5    8    1        -0.1480622473E+00      0.3597988988E+00
          0                 5           2             4    7     1      -0.7531194722E-03       4    7    1        -0.3932184408E-01      0.9588961649E-01
          0                 6           1             4    7     1       0.5914841644E-04       4    7    1         0.3175062633E-02      0.7736230692E-02

    ------------------------------------------------
       NWT REQUIRED            6 OUTER ITERATIONS 
       AND A TOTAL OF         11 INNER ITERATIONS.
    ------------------------------------------------

 NO OUTPUT CONTROL FOR STRESS PERIOD   32   TIME STEP   22
 
 SOLVING FOR HEAD 
                                                   Max.-Head-Change                         Max.-Flux-Residual
  Residual-Control   Outer-Iter.   Inner-Iter.     Column Row Layer    Maximum-Head-Change  Column Row Layer    Maximum-Flux-Residual          L2-NORM 
          0                 1           2             4    7     1      -0.1196959965E+00       4    7    1        -0.6305481990E+01      0.1346581160E+02
          0                 2           2             5    8     1      -0.1003621602E-01       5    8    1        -0.5495704630E+00      0.1292316163E+01
          0                 3           2             4    7     1      -0.6072344752E-01       4    7    1        -0.3170552358E+01      0.7722822248E+01
          0                 4           2             4    7     1      -0.2783996346E-02       5    8    1        -0.1481824969E+00      0.3600854147E+00
          0                 5           2             4    7     1      -0.7529148467E-03       4    7    1        -0.3931101999E-01      0.9586095452E-01
          0                 6           1             4    7     1       0.5912844892E-04       4    7    1         0.3173980422E-02      0.7733364655E-02

    ------------------------------------------------
       NWT REQUIRED            6 OUTER ITERATIONS 
       AND A TOTAL OF         11 INNER ITERATIONS.
    ------------------------------------------------

 NO OUTPUT CONTROL FOR STRESS PERIOD   32   TIME STEP   23
 
 SOLVING FOR HEAD 
                                                   Max.-Head-Change                         Max.-Flux-Residual
  Residual-Control   Outer-Iter.   Inner-Iter.     Column Row Layer    Maximum-Head-Change  Column Row Layer    Maximum-Flux-Residual          L2-NORM 
          0                 1           2             4    7     1      -0.1176268571E+00       4    7    1        -0.6197442778E+01      0.1331003812E+02
          0                 2           2             5    8     1      -0.1025118524E-01       5    8    1        -0.5611886248E+00      0.1322431059E+01
          0                 3           2             4    7     1      -0.6070302350E-01       4    7    1        -0.3169472798E+01      0.7720025873E+01
          0                 4           2             4    7     1      -0.2786078418E-02       5    8    1        -0.1482979480E+00      0.3603644415E+00
          0                 5           2             4    7     1      -0.7527112601E-03       4    7    1        -0.3930023969E-01      0.9583303951E-01
          0                 6           1             4    7     1       0.5910858236E-04       4    7    1         0.3172902603E-02      0.7730573284E-02

    ------------------------------------------------
       NWT REQUIRED            6 OUTER ITERATIONS 
       AND A TOTAL OF         11 INNER ITERATIONS.
    ------------------------------------------------

 NO OUTPUT CONTROL FOR STRESS PERIOD   32   TIME STEP   24
 
 SOLVING FOR HEAD 
                                                   Max.-Head-Change                         Max.-Flux-Residual
  Residual-Control   Outer-Iter.   Inner-Iter.     Column Row Layer    Maximum-Head-Change  Column Row Layer    Maximum-Flux-Residual          L2-NORM 
          0                 1           2             4    7     1      -0.1155698717E+00       4    7    1        -0.6089952394E+01      0.1316131352E+02
          0                 2           2             5    8     1      -0.1044770687E-01       5    8    1        -0.5716865071E+00      0.1351511720E+01
          0                 3           2             4    7     1      -0.6068271469E-01       4    7    1        -0.3168398705E+01      0.7717301351E+01
          0                 4           2             4    7     1      -0.2788150343E-02       5    8    1        -0.1484022459E+00      0.3606362734E+00
          0                 5           2             4    7     1      -0.7525088476E-03       4    7    1        -0.3928951362E-01      0.9580583899E-01
          0                 6           1             4    7     1       0.5908882771E-04       4    7    1         0.3171830179E-02      0.7727853277E-02

    ------------------------------------------------
       NWT REQUIRED            6 OUTER ITERATIONS 
       AND A TOTAL OF         11 INNER ITERATIONS.
    ------------------------------------------------

 NO OUTPUT CONTROL FOR STRESS PERIOD   32   TIME STEP   25
 
 SOLVING FOR HEAD 
                                                   Max.-Head-Change                         Max.-Flux-Residual
  Residual-Control   Outer-Iter.   Inner-Iter.     Column Row Layer    Maximum-Head-Change  Column Row Layer    Maximum-Flux-Residual          L2-NORM 
          0                 1           2             4    7     1      -0.1135269297E+00       4    7    1        -0.5983094029E+01      0.1301932798E+02
          0                 2           2             5    8     1      -0.1065986793E-01       5    8    1        -0.5831630138E+00      0.1379841805E+01
          0                 3           2             4    7     1      -0.6066256873E-01       4    7    1        -0.3167330913E+01      0.7714646358E+01
          0                 4           2             4    7     1      -0.2790204660E-02       5    8    1        -0.1485163768E+00      0.3609012673E+00
          0                 5           2             4    7     1      -0.7523080417E-03       4    7    1        -0.3927885012E-01      0.9577932906E-01
          0                 6           1             4    7     1       0.5906923120E-04       4    7    1         0.3170763990E-02      0.7725202367E-02

    ------------------------------------------------
       NWT REQUIRED            6 OUTER ITERATIONS 
       AND A TOTAL OF         11 INNER ITERATIONS.
    ------------------------------------------------

 NO OUTPUT CONTROL FOR STRESS PERIOD   32   TIME STEP   26
 
 SOLVING FOR HEAD 
                                                   Max.-Head-Change                         Max.-Flux-Residual
  Residual-Control   Outer-Iter.   Inner-Iter.     Column Row Layer    Maximum-Head-Change  Column Row Layer    Maximum-Flux-Residual          L2-NORM 
          0                 1           2             4    7     1      -0.1114989327E+00       4    7    1        -0.5876954438E+01      0.1288373048E+02
          0                 2           2             5    8     1      -0.1085343823E-01       5    8    1        -0.5936056137E+00      0.1407230067E+01
          0                 3           2             4    7     1      -0.6064255648E-01       4    7    1        -0.3166270287E+01      0.7712057952E+01
          0                 4           2             4    7     1      -0.2792245587E-02       5    8    1        -0.1486202101E+00      0.3611595911E+00
          0                 5           2             4    7     1      -0.7521085739E-03       4    7    1        -0.3926825789E-01      0.9575348162E-01
          0                 6           1             4    7     1       0.5904976533E-04       4    7    1         0.3169704961E-02      0.7722617600E-02

    ------------------------------------------------
       NWT REQUIRED            6 OUTER ITERATIONS 
       AND A TOTAL OF         11 INNER ITERATIONS.
    ------------------------------------------------

 NO OUTPUT CONTROL FOR STRESS PERIOD   32   TIME STEP   27
 
 SOLVING FOR HEAD 
                                                   Max.-Head-Change                         Max.-Flux-Residual
  Residual-Control   Outer-Iter.   Inner-Iter.     Column Row Layer    Maximum-Head-Change  Column Row Layer    Maximum-Flux-Residual          L2-NORM 
          0                 1           2             4    7     1      -0.1094871591E+00       4    7    1        -0.5771598107E+01      0.1275414092E+02
          0                 2           2             5    8     1      -0.1103998218E-01       5    8    1        -0.6036619992E+00      0.1433861375E+01
          0                 3           2             4    7     1      -0.6062270623E-01       4    7    1        -0.3165217474E+01      0.7709533943E+01
          0                 4           2             4    7     1      -0.2794270260E-02       5    8    1        -0.1487202215E+00      0.3614115027E+00
          0                 5           2             4    7     1      -0.7519107250E-03       4    7    1        -0.3925774339E-01      0.9572827504E-01
          0                 6           1             4    7     1       0.5903045712E-04       4    7    1         0.3168653689E-02      0.7720097122E-02

    ------------------------------------------------
       NWT REQUIRED            6 OUTER ITERATIONS 
       AND A TOTAL OF         11 INNER ITERATIONS.
    ------------------------------------------------

 NO OUTPUT CONTROL FOR STRESS PERIOD   32   TIME STEP   28
 
 SOLVING FOR HEAD 
                                                   Max.-Head-Change                         Max.-Flux-Residual
  Residual-Control   Outer-Iter.   Inner-Iter.     Column Row Layer    Maximum-Head-Change  Column Row Layer    Maximum-Flux-Residual          L2-NORM 
          0                 1           2             4    7     1      -0.1074924799E+00       4    7    1        -0.5667075932E+01      0.1263020788E+02
          0                 2           2             5    8     1      -0.1121949826E-01       5    8    1        -0.6133541689E+00      0.1459364846E+01
          0                 3           2             4    7     1      -0.6060136884E-01       4    7    1        -0.3163994549E+01      0.7707071297E+01
          0                 4           2             4    7     1      -0.2796609106E-02       5    8    1        -0.1488166295E+00      0.3616572037E+00
          0                 5           2             4    7     1      -0.7517007298E-03       4    7    1        -0.3924552757E-01      0.9570367839E-01
          0                 6           1             4    7     1       0.5900970292E-04       4    7    1         0.3167432252E-02      0.7717636980E-02

    ------------------------------------------------
       NWT REQUIRED            6 OUTER ITERATIONS 
       AND A TOTAL OF         11 INNER ITERATIONS.
    ------------------------------------------------

 NO OUTPUT CONTROL FOR STRESS PERIOD   32   TIME STEP   29
 
 SOLVING FOR HEAD 
                                                   Max.-Head-Change                         Max.-Flux-Residual
  Residual-Control   Outer-Iter.   Inner-Iter.     Column Row Layer    Maximum-Head-Change  Column Row Layer    Maximum-Flux-Residual          L2-NORM 
          0                 1           2             4    7     1      -0.1055905141E+00       4    7    1        -0.5564983510E+01      0.1251168172E+02
          0                 2           2             5    8     1      -0.1139369746E-01       5    8    1        -0.6227041249E+00      0.1484554837E+01
          0                 3           2             4    7     1      -0.6058538748E-01       4    7    1        -0.3163152908E+01      0.7704669158E+01
          0                 4           2             4    7     1      -0.2798246704E-02       5    8    1        -0.1489096516E+00      0.3618970938E+00
          0                 5           2             4    7     1      -0.7515415637E-03       4    7    1        -0.3923712383E-01      0.9567968279E-01
          0                 6           1             4    7     1       0.5899415791E-04       4    7    1         0.3166592054E-02      0.7715237422E-02

    ------------------------------------------------
       NWT REQUIRED            6 OUTER ITERATIONS 
       AND A TOTAL OF         11 INNER ITERATIONS.
    ------------------------------------------------

 NO OUTPUT CONTROL FOR STRESS PERIOD   32   TIME STEP   30



 STREAM LISTING     PERIOD     32   STEP       30

 LAYER ROW COL. STREAM  RCH.  FLOW INTO     FLOW TO   FLOW OUT OF   OVRLND.     DIRECT     STREAM       STREAM     STREAM     STREAM   STREAMBED  STREAMBED
                SEG.NO.  NO.  STRM. RCH.    AQUIFER    STRM. RCH.    RUNOFF     PRECIP       ET          HEAD       DEPTH      WIDTH   CONDCTNC.   GRADIENT

   1    1    1     1     1    1.9000E+01  2.1427E-01   1.8786E+01  0.000E+00  0.000E+00  0.000E+00  1.09413E+03  1.082E+00  1.166E+01  5.249E-02  1.361E+00
   1    2    2     1     2    1.8786E+01  3.3054E-01   1.8455E+01  0.000E+00  0.000E+00  0.000E+00  1.08914E+03  1.077E+00  1.158E+01  8.107E-02  1.359E+00
   1    3    3     1     3    1.8455E+01  2.8064E-01   1.8175E+01  0.000E+00  0.000E+00  0.000E+00  1.08349E+03  1.072E+00  1.149E+01  6.892E-02  1.357E+00
   1    3    4     1     4    1.8175E+01  2.5740E-01   1.7917E+01  0.000E+00  0.000E+00  0.000E+00  1.07848E+03  1.068E+00  1.140E+01  6.328E-02  1.356E+00
   1    4    5     2     1    1.5917E+01  3.0542E-01   1.5612E+01  0.000E+00  0.000E+00  0.000E+00  1.07285E+03  9.157E-01  1.200E+01  7.800E-02  1.305E+00
   1    5    6     2     2    1.5612E+01  2.3438E-01   1.5377E+01  0.000E+00  0.000E+00  0.000E+00  1.06742E+03  9.063E-01  1.200E+01  6.000E-02  1.302E+00
   1    6    6     2     3    1.5377E+01  2.3388E-01   1.5143E+01  0.000E+00  0.000E+00  0.000E+00  1.06269E+03  8.980E-01  1.200E+01  6.000E-02  1.299E+00
   1    7    6     2     4    1.5143E+01  2.3338E-01   1.4910E+01  0.000E+00  0.000E+00  0.000E+00  1.05797E+03  8.897E-01  1.200E+01  6.000E-02  1.297E+00
   1    8    6     2     5    1.4910E+01  2.3289E-01   1.4677E+01  0.000E+00  0.000E+00  0.000E+00  1.05324E+03  8.814E-01  1.200E+01  6.000E-02  1.294E+00
   1    3    5     3     1    2.0000E+00  2.8252E-01   1.7175E+00  0.000E+00  0.000E+00  0.000E+00  1.07555E+03  1.909E+00  9.636E+00  7.227E-02  1.955E+00
   1    3    6     3     2    1.7175E+00  2.4905E-01   1.4684E+00  0.000E+00  0.000E+00  0.000E+00  1.07264E+03  1.727E+00  8.909E+00  6.682E-02  1.864E+00
   1    3    7     3     3    1.4684E+00  1.9718E-01   1.2712E+00  0.000E+00  0.000E+00  0.000E+00  1.06987E+03  1.555E+00  8.218E+00  5.547E-02  1.777E+00
   1    4    8     3     4    1.2712E+00  2.2567E-01   1.0456E+00  0.000E+00  0.000E+00  0.000E+00  1.06682E+03  1.364E+00  7.455E+00  6.709E-02  1.682E+00
   1    5    8     3     5    1.0456E+00  1.5790E-01   8.8768E-01  0.000E+00  0.000E+00  0.000E+00  1.06362E+03  1.164E+00  6.655E+00  4.991E-02  1.582E+00
   1    6    8     3     6    8.8768E-01  5.5980E-02   8.3170E-01  0.000E+00  0.000E+00  0.000E+00  1.06158E+03  1.036E+00  6.145E+00  1.844E-02  1.518E+00
   1    5   10     4     1    1.0000E+01  9.0919E-02   9.9091E+00  0.000E+00  0.000E+00  0.000E+00  1.07836E+03  6.368E-01  1.000E+01  2.500E-02  1.212E+00
   1    5    9     4     2    9.9091E+00  1.8158E-01   9.7275E+00  0.000E+00  0.000E+00  0.000E+00  1.07154E+03  6.315E-01  1.000E+01  5.000E-02  1.211E+00
   1    6    8     4     3    9.7275E+00  1.2689E-01   9.6006E+00  0.000E+00  0.000E+00  0.000E+00  1.06381E+03  6.256E-01  1.000E+01  3.500E-02  1.209E+00
   1    6    8     5     1    1.0432E+01  2.2686E-01   1.0205E+01  0.000E+00  0.000E+00  0.000E+00  1.05868E+03  6.790E-01  1.542E+01  6.166E-02  1.226E+00
   1    7    7     5     2    1.0205E+01  2.7894E-01   9.9265E+00  0.000E+00  0.000E+00  0.000E+00  1.05417E+03  6.732E-01  1.519E+01  7.594E-02  1.224E+00
   1    8    7     5     3    9.9265E+00  1.9221E-01   9.7343E+00  0.000E+00  0.000E+00  0.000E+00  1.04992E+03  6.676E-01  1.497E+01  5.241E-02  1.223E+00
   1    8    6     5     4    9.7343E+00  1.3577E-01   9.5985E+00  0.000E+00  0.000E+00  0.000E+00  1.04691E+03  6.637E-01  1.482E+01  3.706E-02  1.221E+00
   1    9    6     6     1    2.4276E+01  2.5176E-01   2.4024E+01  0.000E+00  0.000E+00  0.000E+00  1.04392E+03  1.196E+00  1.200E+01  6.000E-02  1.399E+00
   1   10    7     6     2    2.4024E+01  2.5131E-01   2.3773E+01  0.000E+00  0.000E+00  0.000E+00  1.03937E+03  1.188E+00  1.200E+01  6.000E-02  1.396E+00
   1   11    7     6     3    2.3773E+01  2.5086E-01   2.3522E+01  0.000E+00  0.000E+00  0.000E+00  1.03482E+03  1.181E+00  1.200E+01  6.000E-02  1.394E+00
   1   12    7     6     4    2.3522E+01  2.5041E-01   2.3271E+01  0.000E+00  0.000E+00  0.000E+00  1.03026E+03  1.173E+00  1.200E+01  6.000E-02  1.391E+00
   1   13    7     6     5    2.3271E+01  6.7879E-03   2.3265E+01  0.000E+00  0.000E+00  0.000E+00  1.02708E+03  1.170E+00  1.200E+01  2.400E-02  9.428E-02
   1   14    9     7     1    1.5000E+02  1.3503E+00   1.4865E+02  0.000E+00  0.000E+00  0.000E+00  1.03987E+03  2.288E+00  5.529E+01  5.593E-01  8.047E-01
   1   13    8     7     2    1.4865E+02  1.9112E+00   1.4674E+02  0.000E+00  0.000E+00  0.000E+00  1.03478E+03  2.279E+00  5.526E+01  6.148E-01  1.036E+00
   1   13    7     7     3    1.4674E+02  1.6155E+00   1.4512E+02  0.000E+00  0.000E+00  0.000E+00  1.02969E+03  2.270E+00  5.521E+01  5.584E-01  9.644E-01
   1   13    6     8     1    1.6839E+02  1.0553E+00   1.6733E+02  0.000E+00  0.000E+00  0.000E+00  1.02481E+03  2.938E+00  4.260E+01  4.342E-01  8.103E-01
   1   13    5     8     2    1.6733E+02  2.9942E-01   1.6703E+02  0.000E+00  0.000E+00  0.000E+00  1.01856E+03  2.934E+00  4.254E+01  4.335E-01  2.302E-01
   1   13    4     8     3    1.6703E+02 -2.0250E+00   1.6906E+02  0.000E+00  0.000E+00  0.000E+00  1.01231E+03  2.939E+00  4.262E+01  4.343E+00 -1.554E-01
   1   13    3     8     4    1.6906E+02 -3.4454E+00   1.7250E+02  0.000E+00  0.000E+00  0.000E+00  1.00608E+03  2.957E+00  4.288E+01  4.370E+00 -2.628E-01
   1   13    2     8     5    1.7250E+02 -2.5276E+00   1.7503E+02  0.000E+00  0.000E+00  0.000E+00  9.99852E+02  2.977E+00  4.316E+01  4.398E+00 -1.916E-01
   1   13    1     8     6    1.7503E+02 -1.9704E+00   1.7700E+02  0.000E+00  0.000E+00  0.000E+00  9.94866E+02  2.991E+00  4.337E+01  2.652E+00 -2.477E-01





UNSATURATED ZONE PACKAGE VOLUMETRIC BUDGET FOR  TIME STEP    30 STRESS PERIOD   32
  ------------------------------------------------------------------------------



     CUMULATIVE VOLUMES      L**3       RATES FOR THIS TIME STEP      L**3/T
     ------------------                 ------------------------

           IN:                                      IN:
           ---                                      ---
        INFILTRATION =  1340360814.6136          INFILTRATION =          88.3416

          OUT:                                     OUT:
          ----                                     ----
              UZF ET =  1123120804.3124                UZF ET =          60.8175
        UZF RECHARGE =   144779183.7052          UZF RECHARGE =       0.0000E+00

            IN - OUT =    72460826.5960              IN - OUT =          27.5241

          STORAGE:                                 STORAGE:
          --------                                 --------
      STORAGE CHANGE =    72460844.9882        STORAGE CHANGE =          27.5241

 PERCENT DISCREPANCY IS DIFFERENCE BETWEEN IN-OUT MINUS CHANGE IN STORAGE
 DIVIDED BY THE AVERAGE OF IN AND OUT TIMES 100

 PERCENT DISCREPANCY =           0.00     PERCENT DISCREPANCY =          -0.00






1
  VOLUMETRIC BUDGET FOR AGRICULTURAL FIELDS AT  END OF TIME STEP   30, STRESS PERIOD  32
  ------------------------------------------------------------------------------

     CUMULATIVE VOLUMES      L**3       RATES FOR THIS TIME STEP      L**3/T
     ------------------                 ------------------------

           IN:                                      IN:
           ---                                      ---
               AG WELLS  =  1271188352.0000                 AG WELLS  =          87.4941
      DIVERSION SEGMENTS =           0.0000        DIVERSION SEGMENTS =           0.0000
           GW IRRIGATION =           0.0000             GW IRRIGATION =           0.0000
           SW IRRIGATION =           0.0000             SW IRRIGATION =           0.0000
        SYSTEM LOSSES GW =           0.0000          SYSTEM LOSSES GW =           0.0000
        SYSTEM LOSSES SW =           0.0000          SYSTEM LOSSES SW =           0.0000

                TOTAL IN =  1271188352.0000                  TOTAL IN =          87.4941

          OUT:                                     OUT:
          ----                                     ----
               AG WELLS  =           0.0000                 AG WELLS  =           0.0000
      DIVERSION SEGMENTS =           0.0000        DIVERSION SEGMENTS =           0.0000
           GW IRRIGATION =  1271188352.0000             GW IRRIGATION =          87.4941
           SW IRRIGATION =           0.0000             SW IRRIGATION =           0.0000
        SYSTEM LOSSES GW =           0.0000          SYSTEM LOSSES GW =           0.0000
        SYSTEM LOSSES SW =           0.0000          SYSTEM LOSSES SW =           0.0000

               TOTAL OUT =  1271188352.0000                 TOTAL OUT =          87.4941

                IN - OUT =           0.0000                  IN - OUT =           0.0000

     PERCENT DISCREPANCY =           0.00         PERCENT DISCREPANCY =           0.00



1
  VOLUMETRIC BUDGET FOR ENTIRE MODEL AT END OF TIME STEP   30, STRESS PERIOD  32
  ------------------------------------------------------------------------------

     CUMULATIVE VOLUMES      L**3       RATES FOR THIS TIME STEP      L**3/T
     ------------------                 ------------------------

           IN:                                      IN:
           ---                                      ---
             STORAGE     =  1569951616.0000               STORAGE     =          85.5653
       CONSTANT HEAD     =           0.0000         CONSTANT HEAD     =           0.0000
     HEAD DEP BOUNDS     =    23315166.0000       HEAD DEP BOUNDS     =           0.2867
      STREAM LEAKAGE     =  1003439680.0000        STREAM LEAKAGE     =          11.9672
        UZF RECHARGE     =   144779152.0000          UZF RECHARGE     =           0.0000
               GW ET     =           0.0000                 GW ET     =           0.0000
     SURFACE LEAKAGE     =           0.0000       SURFACE LEAKAGE     =           0.0000
           AG WELLS      =           0.0000             AG WELLS      =           0.0000

                TOTAL IN =  2741485824.0000                  TOTAL IN =          97.8193

          OUT:                                     OUT:
          ----                                     ----
             STORAGE     =   588441856.0000               STORAGE     =       6.8883E-02
       CONSTANT HEAD     =           0.0000         CONSTANT HEAD     =           0.0000
     HEAD DEP BOUNDS     =    23911150.0000       HEAD DEP BOUNDS     =           0.2891
      STREAM LEAKAGE     =   840434624.0000        STREAM LEAKAGE     =           9.9684
        UZF RECHARGE     =           0.0000          UZF RECHARGE     =           0.0000
               GW ET     =    17516202.0000                 GW ET     =           0.0000
     SURFACE LEAKAGE     =           0.0000       SURFACE LEAKAGE     =           0.0000
           AG WELLS      =  1271188352.0000             AG WELLS      =          87.4941

               TOTAL OUT =  2741492224.0000                 TOTAL OUT =          97.8206

                IN - OUT =       -6400.0000                  IN - OUT =      -1.2894E-03

     PERCENT DISCREPANCY =          -0.00         PERCENT DISCREPANCY =          -0.00






         TIME SUMMARY AT END OF TIME STEP   30 IN STRESS PERIOD   32
                    SECONDS     MINUTES      HOURS       DAYS        YEARS
                    -----------------------------------------------------------
   TIME STEP LENGTH  87667.      1461.1      24.352      1.0147     2.77799E-03
 STRESS PERIOD TIME 2.63000E+06  43833.      730.56      30.440     8.33397E-02
         TOTAL TIME 8.16164E+07 1.36027E+06  22671.      944.63      2.5863    
1
1
                            STRESS PERIOD NO.   33, LENGTH =   2630000.    
                            -----------------------------------------------

                              NUMBER OF TIME STEPS =    30

                               MULTIPLIER FOR DELT =     1.000

                            INITIAL TIME STEP SIZE =   87666.66    

 REUSING NON-PARAMETER GHB CELLS FROM LAST STRESS PERIOD

      2 GHB CELLS

 REUSING STREAM SEGMENT DATA FROM LAST STRESS PERIOD



            AREAL INFILTRATION RATE
 READING ON UNIT   19 WITH FORMAT: (FREE)              

            1           2           3           4           5           6           7           8           9          10
 ........................................................................................................................
   1   1.0000E-10  2.0000E-10   0.000       0.000       0.000       0.000       0.000       0.000       0.000       0.000    
   2   2.0000E-10  1.0000E-10  2.0000E-10   0.000       0.000      8.0000E-10  8.0000E-10  5.0000E-10   0.000       0.000    
   3    0.000      5.0000E-10  1.0000E-10  1.0000E-10  8.0000E-10  8.0000E-10  5.0000E-10  5.0000E-10   0.000       0.000    
   4   8.0000E-10  5.0000E-10  1.0000E-10  1.0000E-10  1.0000E-10  1.0000E-10  1.0000E-10  1.0000E-10  2.0000E-10   0.000    
   5   8.0000E-10  5.0000E-10  1.0000E-10  1.0000E-10  1.0000E-10  1.0000E-10  1.0000E-10  1.0000E-10  1.0000E-10  1.0000E-10
   6   8.0000E-10  5.0000E-10  5.0000E-10  2.0000E-10  2.0000E-10  1.0000E-10  1.0000E-10  1.0000E-10  1.0000E-10  5.0000E-10
   7   8.0000E-10  5.0000E-10  5.0000E-10  2.0000E-10  2.0000E-10  1.0000E-10  1.0000E-10  2.0000E-10  2.0000E-10   0.000    
   8    0.000      5.0000E-10  5.0000E-10  2.0000E-10  2.0000E-10  1.0000E-10  1.0000E-10  2.0000E-10  5.0000E-10   0.000    
   9    0.000      5.0000E-10  5.0000E-10  2.0000E-10  2.0000E-10  1.0000E-10  1.0000E-10  2.0000E-10  5.0000E-10   0.000    
  10    0.000      5.0000E-10  5.0000E-10  2.0000E-10  2.0000E-10  1.0000E-10  1.0000E-10  2.0000E-10  5.0000E-10  8.0000E-10
  11    0.000      1.0000E-10  1.0000E-10  1.0000E-10  1.0000E-10  1.0000E-10  1.0000E-10  2.0000E-10  5.0000E-10   0.000    
  12   1.0000E-10  1.0000E-10  1.0000E-10  1.0000E-10  1.0000E-10  1.0000E-10  1.0000E-10  1.0000E-10  2.0000E-10   0.000    
  13   1.0000E-10  1.0000E-10  2.0000E-10  2.0000E-10  2.0000E-10  2.0000E-10  2.0000E-10  1.0000E-10  1.0000E-10   0.000    
  14    0.000      2.0000E-10  5.0000E-10  5.0000E-10  5.0000E-10  5.0000E-10  5.0000E-10  2.0000E-10  1.0000E-10   0.000    
  15    0.000       0.000      8.0000E-10  8.0000E-10  8.0000E-10  8.0000E-10   0.000       0.000       0.000       0.000    

                  ET RATE =  3.250000E-07

 USING ET EXTINCTION DEPTH FROM PREVIOUS STRESS PERIOD. CURRENT PERIOD IS:      33

 USING EXTINCTION WATER CONTENT FROM PREVIOUS STRESS PERIOD. CURRENT PERIOD IS:      33

 USING AIR ENTRY PRESSURE FROM PREVIOUS STRESS PERIOD. CURRENT PERIOD IS:      33

 USING ROOT PRESSURE HEAD FROM PREVIOUS STRESS PERIOD. CURRENT PERIOD IS:      33

 USING ROOT ACTIVITY FROM PREVIOUS STRESS PERIOD. CURRENT PERIOD IS:      33

 PROCESSING AG STRESS PERIOD DATA

 READING AG STRESS PERIOD DATA

 READING IRRIGATION WELL

 END PROCESSING AG STRESS PERIOD DATA OPTIONS
 
 SOLVING FOR HEAD 
                                                   Max.-Head-Change                         Max.-Flux-Residual
  Residual-Control   Outer-Iter.   Inner-Iter.     Column Row Layer    Maximum-Head-Change  Column Row Layer    Maximum-Flux-Residual          L2-NORM 
          0                 1           2             4    7     1      -0.6775755071E-01       4    7    1        -0.3589725040E+01      0.9600349450E+01
          0                 2           2             4    7     1       0.6590838801E-02       4    7    1         0.3589639537E+00      0.9600237029E+00
          0                 3           2             4    7     1      -0.4488128937E-03       4    7    1        -0.2512756853E-01      0.6720179003E-01
          0                 4           1             4    7     1       0.1785867891E-04       4    7    1         0.1027718605E-02      0.2748557065E-02

    ------------------------------------------------
       NWT REQUIRED            4 OUTER ITERATIONS 
       AND A TOTAL OF          7 INNER ITERATIONS.
    ------------------------------------------------

 NO OUTPUT CONTROL FOR STRESS PERIOD   33   TIME STEP    1
 
 SOLVING FOR HEAD 
                                                   Max.-Head-Change                         Max.-Flux-Residual
  Residual-Control   Outer-Iter.   Inner-Iter.     Column Row Layer    Maximum-Head-Change  Column Row Layer    Maximum-Flux-Residual          L2-NORM 
          0                 1           2             4    7     1      -0.6649282932E-01       4    7    1        -0.3520463481E+01      0.9475032385E+01
          0                 2           2             4    7     1       0.6467821344E-02       4    7    1         0.3520381857E+00      0.9474929320E+00
          0                 3           2             4    7     1      -0.4404358073E-03       4    7    1        -0.2464276087E-01      0.6632462796E-01
          0                 4           1             4    7     1       0.1752534743E-04       4    7    1         0.1007889971E-02      0.2712680824E-02

    ------------------------------------------------
       NWT REQUIRED            4 OUTER ITERATIONS 
       AND A TOTAL OF          7 INNER ITERATIONS.
    ------------------------------------------------

 NO OUTPUT CONTROL FOR STRESS PERIOD   33   TIME STEP    2
 
 SOLVING FOR HEAD 
                                                   Max.-Head-Change                         Max.-Flux-Residual
  Residual-Control   Outer-Iter.   Inner-Iter.     Column Row Layer    Maximum-Head-Change  Column Row Layer    Maximum-Flux-Residual          L2-NORM 
          0                 1           2             4    7     1      -0.6529305900E-01       4    7    1        -0.3454757430E+01      0.9360413803E+01
          0                 2           2             4    7     1       0.6351121622E-02       4    7    1         0.3454679512E+00      0.9360319018E+00
          0                 3           2             4    7     1      -0.4324889383E-03       4    7    1        -0.2418284077E-01      0.6552234570E-01
          0                 4           1             4    7     1       0.1720913405E-04       4    7    1         0.9890792230E-03      0.2679867023E-02

    ------------------------------------------------
       NWT REQUIRED            4 OUTER ITERATIONS 
       AND A TOTAL OF          7 INNER ITERATIONS.
    ------------------------------------------------

 NO OUTPUT CONTROL FOR STRESS PERIOD   33   TIME STEP    3
 
 SOLVING FOR HEAD 
                                                   Max.-Head-Change                         Max.-Flux-Residual
  Residual-Control   Outer-Iter.   Inner-Iter.     Column Row Layer    Maximum-Head-Change  Column Row Layer    Maximum-Flux-Residual          L2-NORM 
          0                 1           2             4    7     1      -0.6415462889E-01       4    7    1        -0.3392411910E+01      0.9255355612E+01
          0                 2           2             4    7     1       0.6240388401E-02       4    7    1         0.3392337527E+00      0.9255268160E+00
          0                 3           2             4    7     1      -0.4249483675E-03       4    7    1        -0.2374644333E-01      0.6478698355E-01
          0                 4           1             4    7     1       0.1690908793E-04       4    7    1         0.9712305580E-03      0.2649792296E-02

    ------------------------------------------------
       NWT REQUIRED            4 OUTER ITERATIONS 
       AND A TOTAL OF          7 INNER ITERATIONS.
    ------------------------------------------------

 NO OUTPUT CONTROL FOR STRESS PERIOD   33   TIME STEP    4
 
 SOLVING FOR HEAD 
                                                   Max.-Head-Change                         Max.-Flux-Residual
  Residual-Control   Outer-Iter.   Inner-Iter.     Column Row Layer    Maximum-Head-Change  Column Row Layer    Maximum-Flux-Residual          L2-NORM 
          0                 1           2             4    7     1      -0.6307460484E-01       4    7    1        -0.3333268526E+01      0.9158835339E+01
          0                 2           2             4    7     1       0.6135336273E-02       4    7    1         0.3333197515E+00      0.9158754435E+00
          0                 3           2             4    7     1      -0.4177946604E-03       4    7    1        -0.2333245988E-01      0.6411138138E-01
          0                 4           1             4    7     1       0.1662443528E-04       4    7    1         0.9542986186E-03      0.2622158144E-02

    ------------------------------------------------
       NWT REQUIRED            4 OUTER ITERATIONS 
       AND A TOTAL OF          7 INNER ITERATIONS.
    ------------------------------------------------

 NO OUTPUT CONTROL FOR STRESS PERIOD   33   TIME STEP    5
 
 SOLVING FOR HEAD 
                                                   Max.-Head-Change                         Max.-Flux-Residual
  Residual-Control   Outer-Iter.   Inner-Iter.     Column Row Layer    Maximum-Head-Change  Column Row Layer    Maximum-Flux-Residual          L2-NORM 
          0                 1           2             4    7     1      -0.6204964185E-01       4    7    1        -0.3277146311E+01      0.9069960621E+01
          0                 2           2             4    7     1       0.6035639868E-02       4    7    1         0.3277078512E+00      0.9069885484E+00
          0                 3           2             4    7     1      -0.4110056604E-03       4    7    1        -0.2293962364E-01      0.6348929194E-01
          0                 4           1             4    7     1       0.1635429516E-04       4    7    1         0.9382316239E-03      0.2596715079E-02

    ------------------------------------------------
       NWT REQUIRED            4 OUTER ITERATIONS 
       AND A TOTAL OF          7 INNER ITERATIONS.
    ------------------------------------------------

 NO OUTPUT CONTROL FOR STRESS PERIOD   33   TIME STEP    6
 
 SOLVING FOR HEAD 
                                                   Max.-Head-Change                         Max.-Flux-Residual
  Residual-Control   Outer-Iter.   Inner-Iter.     Column Row Layer    Maximum-Head-Change  Column Row Layer    Maximum-Flux-Residual          L2-NORM 
          0                 1           2             4    7     1      -0.6107694207E-01       4    7    1        -0.3223893445E+01      0.8987907501E+01
          0                 2           2             4    7     1       0.5941027037E-02       4    7    1         0.3223828703E+00      0.8987837515E+00
          0                 3           2             4    7     1      -0.4045628347E-03       4    7    1        -0.2256687191E-01      0.6291495118E-01
          0                 4           1             4    7     1       0.1609792936E-04       4    7    1         0.9229860680E-03      0.2573224683E-02

    ------------------------------------------------
       NWT REQUIRED            4 OUTER ITERATIONS 
       AND A TOTAL OF          7 INNER ITERATIONS.
    ------------------------------------------------

 NO OUTPUT CONTROL FOR STRESS PERIOD   33   TIME STEP    7
 
 SOLVING FOR HEAD 
                                                   Max.-Head-Change                         Max.-Flux-Residual
  Residual-Control   Outer-Iter.   Inner-Iter.     Column Row Layer    Maximum-Head-Change  Column Row Layer    Maximum-Flux-Residual          L2-NORM 
          0                 1           2             4    7     1      -0.6015369754E-01       4    7    1        -0.3173357649E+01      0.8911977499E+01
          0                 2           2             4    7     1       0.5851224646E-02       4    7    1         0.3173295816E+00      0.8911912058E+00
          0                 3           2             4    7     1      -0.3984475848E-03       4    7    1        -0.2221313882E-01      0.6238346983E-01
          0                 4           1             4    7     1       0.1585459762E-04       4    7    1         0.9085183572E-03      0.2551487704E-02

    ------------------------------------------------
       NWT REQUIRED            4 OUTER ITERATIONS 
       AND A TOTAL OF          7 INNER ITERATIONS.
    ------------------------------------------------

 NO OUTPUT CONTROL FOR STRESS PERIOD   33   TIME STEP    8
 
 SOLVING FOR HEAD 
                                                   Max.-Head-Change                         Max.-Flux-Residual
  Residual-Control   Outer-Iter.   Inner-Iter.     Column Row Layer    Maximum-Head-Change  Column Row Layer    Maximum-Flux-Residual          L2-NORM 
          0                 1           2             4    7     1      -0.5927710040E-01       4    7    1        -0.3125386125E+01      0.8841521748E+01
          0                 2           2             4    7     1       0.5765959574E-02       4    7    1         0.3125327056E+00      0.8841460368E+00
          0                 3           2             4    7     1      -0.3926413113E-03       4    7    1        -0.2187735474E-01      0.6189030095E-01
          0                 4           1             4    7     1       0.1562356117E-04       4    7    1         0.8947848021E-03      0.2531319780E-02

    ------------------------------------------------
       NWT REQUIRED            4 OUTER ITERATIONS 
       AND A TOTAL OF          7 INNER ITERATIONS.
    ------------------------------------------------

 NO OUTPUT CONTROL FOR STRESS PERIOD   33   TIME STEP    9
 
 SOLVING FOR HEAD 
                                                   Max.-Head-Change                         Max.-Flux-Residual
  Residual-Control   Outer-Iter.   Inner-Iter.     Column Row Layer    Maximum-Head-Change  Column Row Layer    Maximum-Flux-Residual          L2-NORM 
          0                 1           2             4    7     1      -0.5844460967E-01       4    7    1        -0.3079840487E+01      0.8775979652E+01
          0                 2           2             4    7     1       0.5684984661E-02       4    7    1         0.3079784044E+00      0.8775921865E+00
          0                 3           2             4    7     1      -0.3871271833E-03       4    7    1        -0.2155855102E-01      0.6143152917E-01
          0                 4           1             4    7     1       0.1540414914E-04       4    7    1         0.8817457349E-03      0.2512552789E-02

    ------------------------------------------------
       NWT REQUIRED            4 OUTER ITERATIONS 
       AND A TOTAL OF          7 INNER ITERATIONS.
    ------------------------------------------------

 NO OUTPUT CONTROL FOR STRESS PERIOD   33   TIME STEP   10
 
 SOLVING FOR HEAD 
                                                   Max.-Head-Change                         Max.-Flux-Residual
  Residual-Control   Outer-Iter.   Inner-Iter.     Column Row Layer    Maximum-Head-Change  Column Row Layer    Maximum-Flux-Residual          L2-NORM 
          0                 1           2             4    7     1      -0.5765380370E-01       4    7    1        -0.3036588985E+01      0.8714842938E+01
          0                 2           2             4    7     1       0.5608064352E-02       4    7    1         0.3036535034E+00      0.8714788385E+00
          0                 3           2             4    7     1      -0.3818891606E-03       4    7    1        -0.2125580546E-01      0.6100359095E-01
          0                 4           1             4    7     1       0.1519572340E-04       4    7    1         0.8693634206E-03      0.2495049227E-02

    ------------------------------------------------
       NWT REQUIRED            4 OUTER ITERATIONS 
       AND A TOTAL OF          7 INNER ITERATIONS.
    ------------------------------------------------

 NO OUTPUT CONTROL FOR STRESS PERIOD   33   TIME STEP   11
 
 SOLVING FOR HEAD 
                                                   Max.-Head-Change                         Max.-Flux-Residual
  Residual-Control   Outer-Iter.   Inner-Iter.     Column Row Layer    Maximum-Head-Change  Column Row Layer    Maximum-Flux-Residual          L2-NORM 
          0                 1           2             4    7     1      -0.5690212349E-01       4    7    1        -0.2995491651E+01      0.8657667381E+01
          0                 2           2             4    7     1       0.5534949734E-02       4    7    1         0.2995440064E+00      0.8657615894E+00
          0                 3           2             4    7     1      -0.3769102931E-03       4    7    1        -0.2096813830E-01      0.6060338161E-01
          0                 4           1             4    7     1       0.1499760964E-04       4    7    1         0.8575978268E-03      0.2478681814E-02

    ------------------------------------------------
       NWT REQUIRED            4 OUTER ITERATIONS 
       AND A TOTAL OF          7 INNER ITERATIONS.
    ------------------------------------------------

 NO OUTPUT CONTROL FOR STRESS PERIOD   33   TIME STEP   12
 
 SOLVING FOR HEAD 
                                                   Max.-Head-Change                         Max.-Flux-Residual
  Residual-Control   Outer-Iter.   Inner-Iter.     Column Row Layer    Maximum-Head-Change  Column Row Layer    Maximum-Flux-Residual          L2-NORM 
          0                 1           2             4    7     1      -0.5618766364E-01       4    7    1        -0.2956444602E+01      0.8604043613E+01
          0                 2           2             4    7     1       0.5465455468E-02       4    7    1         0.2956395256E+00      0.8603994699E+00
          0                 3           2             4    7     1      -0.3721779602E-03       4    7    1        -0.2069482243E-01      0.6022802817E-01
          0                 4           1             4    7     1       0.1480930602E-04       4    7    1         0.8464192044E-03      0.2463329038E-02

    ------------------------------------------------
       NWT REQUIRED            4 OUTER ITERATIONS 
       AND A TOTAL OF          7 INNER ITERATIONS.
    ------------------------------------------------

 NO OUTPUT CONTROL FOR STRESS PERIOD   33   TIME STEP   13
 
 SOLVING FOR HEAD 
                                                   Max.-Head-Change                         Max.-Flux-Residual
  Residual-Control   Outer-Iter.   Inner-Iter.     Column Row Layer    Maximum-Head-Change  Column Row Layer    Maximum-Flux-Residual          L2-NORM 
          0                 1           2             4    7     1      -0.5550809230E-01       4    7    1        -0.2919320242E+01      0.8553627850E+01
          0                 2           2             4    7     1       0.5399354736E-02       4    7    1         0.2919273017E+00      0.8553581232E+00
          0                 3           2             4    7     1      -0.3676767155E-03       4    7    1        -0.2043496463E-01      0.5987513280E-01
          0                 4           1             4    7     1       0.1463019729E-04       4    7    1         0.8357910046E-03      0.2448893862E-02

    ------------------------------------------------
       NWT REQUIRED            4 OUTER ITERATIONS 
       AND A TOTAL OF          7 INNER ITERATIONS.
    ------------------------------------------------

 NO OUTPUT CONTROL FOR STRESS PERIOD   33   TIME STEP   14
 
 SOLVING FOR HEAD 
                                                   Max.-Head-Change                         Max.-Flux-Residual
  Residual-Control   Outer-Iter.   Inner-Iter.     Column Row Layer    Maximum-Head-Change  Column Row Layer    Maximum-Flux-Residual          L2-NORM 
          0                 1           2             4    7     1      -0.5486132974E-01       4    7    1        -0.2884004864E+01      0.8506098436E+01
          0                 2           2             4    7     1       0.5336445245E-02       4    7    1         0.2883959650E+00      0.8506054241E+00
          0                 3           2             4    7     1      -0.3633927846E-03       4    7    1        -0.2018776904E-01      0.5954244156E-01
          0                 4           1             4    7     1       0.1445973625E-04       4    7    1         0.8256807137E-03      0.2435288859E-02

    ------------------------------------------------
       NWT REQUIRED            4 OUTER ITERATIONS 
       AND A TOTAL OF          7 INNER ITERATIONS.
    ------------------------------------------------

 NO OUTPUT CONTROL FOR STRESS PERIOD   33   TIME STEP   15
 
 SOLVING FOR HEAD 
                                                   Max.-Head-Change                         Max.-Flux-Residual
  Residual-Control   Outer-Iter.   Inner-Iter.     Column Row Layer    Maximum-Head-Change  Column Row Layer    Maximum-Flux-Residual          L2-NORM 
          0                 1           2             4    7     1      -0.5424580941E-01       4    7    1        -0.2850412226E+01      0.8461178304E+01
          0                 2           2             4    7     1       0.5276574619E-02       4    7    1         0.2850368912E+00      0.8461135909E+00
          0                 3           2             4    7     1      -0.3593157906E-03       4    7    1        -0.1995263200E-01      0.5922801233E-01
          0                 4           1             4    7     1       0.1429750880E-04       4    7    1         0.8160636035E-03      0.2422428752E-02

    ------------------------------------------------
       NWT REQUIRED            4 OUTER ITERATIONS 
       AND A TOTAL OF          7 INNER ITERATIONS.
    ------------------------------------------------

 NO OUTPUT CONTROL FOR STRESS PERIOD   33   TIME STEP   16
 
 SOLVING FOR HEAD 
                                                   Max.-Head-Change                         Max.-Flux-Residual
  Residual-Control   Outer-Iter.   Inner-Iter.     Column Row Layer    Maximum-Head-Change  Column Row Layer    Maximum-Flux-Residual          L2-NORM 
          0                 1           2             4    7     1      -0.5365938588E-01       4    7    1        -0.2818425114E+01      0.8418616375E+01
          0                 2           2             4    7     1       0.5219534171E-02       4    7    1         0.2818383599E+00      0.8418575619E+00
          0                 3           2             4    7     1      -0.3554315222E-03       4    7    1        -0.1972873299E-01      0.5893009238E-01
          0                 4           1             4    7     1       0.1414295011E-04       4    7    1         0.8069061253E-03      0.2410256069E-02

    ------------------------------------------------
       NWT REQUIRED            4 OUTER ITERATIONS 
       AND A TOTAL OF          7 INNER ITERATIONS.
    ------------------------------------------------

 NO OUTPUT CONTROL FOR STRESS PERIOD   33   TIME STEP   17
 
 SOLVING FOR HEAD 
                                                   Max.-Head-Change                         Max.-Flux-Residual
  Residual-Control   Outer-Iter.   Inner-Iter.     Column Row Layer    Maximum-Head-Change  Column Row Layer    Maximum-Flux-Residual          L2-NORM 
          0                 1           2             4    7     1      -0.5310042580E-01       4    7    1        -0.2787953878E+01      0.8378186006E+01
          0                 2           2             4    7     1       0.5165165031E-02       4    7    1         0.2787914062E+00      0.8378146708E+00
          0                 3           2             4    7     1      -0.3517291619E-03       4    7    1        -0.1951544456E-01      0.5864708412E-01
          0                 4           1             4    7     1       0.1399562984E-04       4    7    1         0.7981826257E-03      0.2398668721E-02

    ------------------------------------------------
       NWT REQUIRED            4 OUTER ITERATIONS 
       AND A TOTAL OF          7 INNER ITERATIONS.
    ------------------------------------------------

 NO OUTPUT CONTROL FOR STRESS PERIOD   33   TIME STEP   18
 
 SOLVING FOR HEAD 
                                                   Max.-Head-Change                         Max.-Flux-Residual
  Residual-Control   Outer-Iter.   Inner-Iter.     Column Row Layer    Maximum-Head-Change  Column Row Layer    Maximum-Flux-Residual          L2-NORM 
          0                 1           2             4    7     1      -0.5256739241E-01       4    7    1        -0.2758913828E+01      0.8339692385E+01
          0                 2           2             4    7     1       0.5113317717E-02       4    7    1         0.2758875618E+00      0.8339654423E+00
          0                 3           2             4    7     1      -0.3481985288E-03       4    7    1        -0.1931217382E-01      0.5837763544E-01
          0                 4           1             4    7     1       0.1385514286E-04       4    7    1         0.7898688325E-03      0.2387647997E-02

    ------------------------------------------------
       NWT REQUIRED            4 OUTER ITERATIONS 
       AND A TOTAL OF          7 INNER ITERATIONS.
    ------------------------------------------------

 NO OUTPUT CONTROL FOR STRESS PERIOD   33   TIME STEP   19
 
 SOLVING FOR HEAD 
                                                   Max.-Head-Change                         Max.-Flux-Residual
  Residual-Control   Outer-Iter.   Inner-Iter.     Column Row Layer    Maximum-Head-Change  Column Row Layer    Maximum-Flux-Residual          L2-NORM 
          0                 1           2             4    7     1      -0.5205869742E-01       4    7    1        -0.2731218085E+01      0.8302944605E+01
          0                 2           2             4    7     1       0.5063837738E-02       4    7    1         0.2731181392E+00      0.8302907735E+00
          0                 3           2             4    7     1      -0.3448291046E-03       4    7    1        -0.1911831272E-01      0.5812040868E-01
          0                 4           1             4    7     1       0.1372107020E-04       4    7    1         0.7819399159E-03      0.2377128421E-02

    ------------------------------------------------
       NWT REQUIRED            4 OUTER ITERATIONS 
       AND A TOTAL OF          7 INNER ITERATIONS.
    ------------------------------------------------

 NO OUTPUT CONTROL FOR STRESS PERIOD   33   TIME STEP   20
 
 SOLVING FOR HEAD 
                                                   Max.-Head-Change                         Max.-Flux-Residual
  Residual-Control   Outer-Iter.   Inner-Iter.     Column Row Layer    Maximum-Head-Change  Column Row Layer    Maximum-Flux-Residual          L2-NORM 
          0                 1           2             4    7     1      -0.5157284974E-01       4    7    1        -0.2704784299E+01      0.8267795504E+01
          0                 2           2             4    7     1       0.5016580060E-02       4    7    1         0.2704749038E+00      0.8267759812E+00
          0                 3           2             4    7     1      -0.3416110119E-03       4    7    1        -0.1893328481E-01      0.5787437156E-01
          0                 4           1             4    7     1       0.1359301941E-04       4    7    1         0.7743722738E-03      0.2367065332E-02

    ------------------------------------------------
       NWT REQUIRED            4 OUTER ITERATIONS 
       AND A TOTAL OF          7 INNER ITERATIONS.
    ------------------------------------------------

 NO OUTPUT CONTROL FOR STRESS PERIOD   33   TIME STEP   21
 
 SOLVING FOR HEAD 
                                                   Max.-Head-Change                         Max.-Flux-Residual
  Residual-Control   Outer-Iter.   Inner-Iter.     Column Row Layer    Maximum-Head-Change  Column Row Layer    Maximum-Flux-Residual          L2-NORM 
          0                 1           2             4    7     1      -0.5110856913E-01       4    7    1        -0.2679542347E+01      0.8234099560E+01
          0                 2           2             4    7     1       0.4971420156E-02       4    7    1         0.2679508438E+00      0.8234064818E+00
          0                 3           2             4    7     1      -0.3385357708E-03       4    7    1        -0.1875659925E-01      0.5763850543E-01
          0                 4           1             4    7     1       0.1347065247E-04       4    7    1         0.7671458152E-03      0.2357418216E-02

    ------------------------------------------------
       NWT REQUIRED            4 OUTER ITERATIONS 
       AND A TOTAL OF          7 INNER ITERATIONS.
    ------------------------------------------------

 NO OUTPUT CONTROL FOR STRESS PERIOD   33   TIME STEP   22
 
 SOLVING FOR HEAD 
                                                   Max.-Head-Change                         Max.-Flux-Residual
  Residual-Control   Outer-Iter.   Inner-Iter.     Column Row Layer    Maximum-Head-Change  Column Row Layer    Maximum-Flux-Residual          L2-NORM 
          0                 1           2             4    7     1      -0.5066452167E-01       4    7    1        -0.2655418656E+01      0.8201737795E+01
          0                 2           2             4    7     1       0.4928228276E-02       4    7    1         0.2655386022E+00      0.8201709338E+00
          0                 3           2             4    7     1      -0.3355945460E-03       4    7    1        -0.1858774106E-01      0.5741078444E-01
          0                 4           1             4    7     1       0.1335361859E-04       4    7    1         0.7602395160E-03      0.2348104309E-02

    ------------------------------------------------
       NWT REQUIRED            4 OUTER ITERATIONS 
       AND A TOTAL OF          7 INNER ITERATIONS.
    ------------------------------------------------

 NO OUTPUT CONTROL FOR STRESS PERIOD   33   TIME STEP   23
 
 SOLVING FOR HEAD 
                                                   Max.-Head-Change                         Max.-Flux-Residual
  Residual-Control   Outer-Iter.   Inner-Iter.     Column Row Layer    Maximum-Head-Change  Column Row Layer    Maximum-Flux-Residual          L2-NORM 
          0                 1           2             4    7     1      -0.5023958628E-01       4    7    1        -0.2632351252E+01      0.8170584872E+01
          0                 2           2             4    7     1       0.4886895377E-02       4    7    1         0.2632319821E+00      0.8170732766E+00
          0                 3           2             4    7     1      -0.3327799121E-03       4    7    1        -0.1842627645E-01      0.5719517989E-01
          0                 4           1             4    7     1       0.1324162235E-04       4    7    1         0.7536356193E-03      0.2339284895E-02

    ------------------------------------------------
       NWT REQUIRED            4 OUTER ITERATIONS 
       AND A TOTAL OF          7 INNER ITERATIONS.
    ------------------------------------------------

 NO OUTPUT CONTROL FOR STRESS PERIOD   33   TIME STEP   24
 
 SOLVING FOR HEAD 
                                                   Max.-Head-Change                         Max.-Flux-Residual
  Residual-Control   Outer-Iter.   Inner-Iter.     Column Row Layer    Maximum-Head-Change  Column Row Layer    Maximum-Flux-Residual          L2-NORM 
          0                 1           2             4    7     1      -0.4983243855E-01       4    7    1        -0.2610267627E+01      0.8140525354E+01
          0                 2           2             4    7     1       0.4847292635E-02       4    7    1         0.2610237330E+00      0.8140493081E+00
          0                 3           2             4    7     1      -0.3300830963E-03       4    7    1        -0.1827169787E-01      0.5698349882E-01
          0                 4           1             4    7     1       0.1313431329E-04       4    7    1         0.7473133553E-03      0.2330628035E-02

    ------------------------------------------------
       NWT REQUIRED            4 OUTER ITERATIONS 
       AND A TOTAL OF          7 INNER ITERATIONS.
    ------------------------------------------------

 NO OUTPUT CONTROL FOR STRESS PERIOD   33   TIME STEP   25
 
 SOLVING FOR HEAD 
                                                   Max.-Head-Change                         Max.-Flux-Residual
  Residual-Control   Outer-Iter.   Inner-Iter.     Column Row Layer    Maximum-Head-Change  Column Row Layer    Maximum-Flux-Residual          L2-NORM 
          0                 1           2             4    7     1      -0.4944223453E-01       4    7    1        -0.2589120678E+01      0.8111490438E+01
          0                 2           2             4    7     1       0.4809337961E-02       4    7    1         0.2589091450E+00      0.8111458848E+00
          0                 3           2             4    7     1      -0.3274985088E-03       4    7    1        -0.1812367564E-01      0.5678026066E-01
          0                 4           1             4    7     1       0.1303147038E-04       4    7    1         0.7412592483E-03      0.2322315531E-02

    ------------------------------------------------
       NWT REQUIRED            4 OUTER ITERATIONS 
       AND A TOTAL OF          7 INNER ITERATIONS.
    ------------------------------------------------

 NO OUTPUT CONTROL FOR STRESS PERIOD   33   TIME STEP   26
 
 SOLVING FOR HEAD 
                                                   Max.-Head-Change                         Max.-Flux-Residual
  Residual-Control   Outer-Iter.   Inner-Iter.     Column Row Layer    Maximum-Head-Change  Column Row Layer    Maximum-Flux-Residual          L2-NORM 
          0                 1           2             4    7     1      -0.4906764763E-01       4    7    1        -0.2568837891E+01      0.8083379058E+01
          0                 2           2             4    7     1       0.4772902321E-02       4    7    1         0.2568809671E+00      0.8083347739E+00
          0                 3           2             4    7     1      -0.3250173623E-03       4    7    1        -0.1798170217E-01      0.5658347880E-01
          0                 4           1             4    7     1       0.1293274294E-04       4    7    1         0.7354525078E-03      0.2314268473E-02

    ------------------------------------------------
       NWT REQUIRED            4 OUTER ITERATIONS 
       AND A TOTAL OF          7 INNER ITERATIONS.
    ------------------------------------------------

 NO OUTPUT CONTROL FOR STRESS PERIOD   33   TIME STEP   27
 
 SOLVING FOR HEAD 
                                                   Max.-Head-Change                         Max.-Flux-Residual
  Residual-Control   Outer-Iter.   Inner-Iter.     Column Row Layer    Maximum-Head-Change  Column Row Layer    Maximum-Flux-Residual          L2-NORM 
          0                 1           2             4    7     1      -0.4870796597E-01       4    7    1        -0.2549379235E+01      0.8056143643E+01
          0                 2           2             4    7     1       0.4737916470E-02       4    7    1         0.2549351966E+00      0.8056113242E+00
          0                 3           2             4    7     1      -0.3226349423E-03       4    7    1        -0.1784549727E-01      0.5639283741E-01
          0                 4           1             4    7     1       0.1283794434E-04       4    7    1         0.7298817336E-03      0.2306468899E-02

    ------------------------------------------------
       NWT REQUIRED            4 OUTER ITERATIONS 
       AND A TOTAL OF          7 INNER ITERATIONS.
    ------------------------------------------------

 NO OUTPUT CONTROL FOR STRESS PERIOD   33   TIME STEP   28
 
 SOLVING FOR HEAD 
                                                   Max.-Head-Change                         Max.-Flux-Residual
  Residual-Control   Outer-Iter.   Inner-Iter.     Column Row Layer    Maximum-Head-Change  Column Row Layer    Maximum-Flux-Residual          L2-NORM 
          0                 1           2             4    7     1      -0.4836211945E-01       4    7    1        -0.2530686235E+01      0.8029694829E+01
          0                 2           2             4    7     1       0.4704276324E-02       4    7    1         0.2530659862E+00      0.8029664941E+00
          0                 3           2             4    7     1      -0.3203441605E-03       4    7    1        -0.1771465164E-01      0.5620769794E-01
          0                 4           1             4    7     1       0.1274679218E-04       4    7    1         0.7245301485E-03      0.2298897073E-02

    ------------------------------------------------
       NWT REQUIRED            4 OUTER ITERATIONS 
       AND A TOTAL OF          7 INNER ITERATIONS.
    ------------------------------------------------

 NO OUTPUT CONTROL FOR STRESS PERIOD   33   TIME STEP   29
 
 SOLVING FOR HEAD 
                                                   Max.-Head-Change                         Max.-Flux-Residual
  Residual-Control   Outer-Iter.   Inner-Iter.     Column Row Layer    Maximum-Head-Change  Column Row Layer    Maximum-Flux-Residual          L2-NORM 
          0                 1           2             4    7     1      -0.4802950135E-01       4    7    1        -0.2512724966E+01      0.8003997815E+01
          0                 2           2             4    7     1       0.4671922870E-02       4    7    1         0.2512699437E+00      0.8003968397E+00
          0                 3           2             4    7     1      -0.3181409986E-03       4    7    1        -0.1758892783E-01      0.5602782033E-01
          0                 4           1             4    7     1       0.1265912642E-04       4    7    1         0.7193880479E-03      0.2291553828E-02

    ------------------------------------------------
       NWT REQUIRED            4 OUTER ITERATIONS 
       AND A TOTAL OF          7 INNER ITERATIONS.
    ------------------------------------------------

 NO OUTPUT CONTROL FOR STRESS PERIOD   33   TIME STEP   30



 STREAM LISTING     PERIOD     33   STEP       30

 LAYER ROW COL. STREAM  RCH.  FLOW INTO     FLOW TO   FLOW OUT OF   OVRLND.     DIRECT     STREAM       STREAM     STREAM     STREAM   STREAMBED  STREAMBED
                SEG.NO.  NO.  STRM. RCH.    AQUIFER    STRM. RCH.    RUNOFF     PRECIP       ET          HEAD       DEPTH      WIDTH   CONDCTNC.   GRADIENT

   1    1    1     1     1    1.9000E+01  2.1427E-01   1.8786E+01  0.000E+00  0.000E+00  0.000E+00  1.09413E+03  1.082E+00  1.166E+01  5.249E-02  1.361E+00
   1    2    2     1     2    1.8786E+01  3.3054E-01   1.8455E+01  0.000E+00  0.000E+00  0.000E+00  1.08914E+03  1.077E+00  1.158E+01  8.107E-02  1.359E+00
   1    3    3     1     3    1.8455E+01  2.8064E-01   1.8175E+01  0.000E+00  0.000E+00  0.000E+00  1.08349E+03  1.072E+00  1.149E+01  6.892E-02  1.357E+00
   1    3    4     1     4    1.8175E+01  2.5740E-01   1.7917E+01  0.000E+00  0.000E+00  0.000E+00  1.07848E+03  1.068E+00  1.140E+01  6.328E-02  1.356E+00
   1    4    5     2     1    1.5917E+01  3.0542E-01   1.5612E+01  0.000E+00  0.000E+00  0.000E+00  1.07285E+03  9.157E-01  1.200E+01  7.800E-02  1.305E+00
   1    5    6     2     2    1.5612E+01  2.3438E-01   1.5377E+01  0.000E+00  0.000E+00  0.000E+00  1.06742E+03  9.063E-01  1.200E+01  6.000E-02  1.302E+00
   1    6    6     2     3    1.5377E+01  2.3388E-01   1.5143E+01  0.000E+00  0.000E+00  0.000E+00  1.06269E+03  8.980E-01  1.200E+01  6.000E-02  1.299E+00
   1    7    6     2     4    1.5143E+01  2.3338E-01   1.4910E+01  0.000E+00  0.000E+00  0.000E+00  1.05797E+03  8.897E-01  1.200E+01  6.000E-02  1.297E+00
   1    8    6     2     5    1.4910E+01  2.3289E-01   1.4677E+01  0.000E+00  0.000E+00  0.000E+00  1.05324E+03  8.814E-01  1.200E+01  6.000E-02  1.294E+00
   1    3    5     3     1    2.0000E+00  2.8252E-01   1.7175E+00  0.000E+00  0.000E+00  0.000E+00  1.07555E+03  1.909E+00  9.636E+00  7.227E-02  1.955E+00
   1    3    6     3     2    1.7175E+00  2.4905E-01   1.4684E+00  0.000E+00  0.000E+00  0.000E+00  1.07264E+03  1.727E+00  8.909E+00  6.682E-02  1.864E+00
   1    3    7     3     3    1.4684E+00  1.9718E-01   1.2712E+00  0.000E+00  0.000E+00  0.000E+00  1.06987E+03  1.555E+00  8.218E+00  5.547E-02  1.777E+00
   1    4    8     3     4    1.2712E+00  2.2567E-01   1.0456E+00  0.000E+00  0.000E+00  0.000E+00  1.06682E+03  1.364E+00  7.455E+00  6.709E-02  1.682E+00
   1    5    8     3     5    1.0456E+00  1.5790E-01   8.8768E-01  0.000E+00  0.000E+00  0.000E+00  1.06362E+03  1.164E+00  6.655E+00  4.991E-02  1.582E+00
   1    6    8     3     6    8.8768E-01  5.5980E-02   8.3170E-01  0.000E+00  0.000E+00  0.000E+00  1.06158E+03  1.036E+00  6.145E+00  1.844E-02  1.518E+00
   1    5   10     4     1    1.0000E+01  9.0919E-02   9.9091E+00  0.000E+00  0.000E+00  0.000E+00  1.07836E+03  6.368E-01  1.000E+01  2.500E-02  1.212E+00
   1    5    9     4     2    9.9091E+00  1.8158E-01   9.7275E+00  0.000E+00  0.000E+00  0.000E+00  1.07154E+03  6.315E-01  1.000E+01  5.000E-02  1.211E+00
   1    6    8     4     3    9.7275E+00  1.2689E-01   9.6006E+00  0.000E+00  0.000E+00  0.000E+00  1.06381E+03  6.256E-01  1.000E+01  3.500E-02  1.209E+00
   1    6    8     5     1    1.0432E+01  2.2686E-01   1.0205E+01  0.000E+00  0.000E+00  0.000E+00  1.05868E+03  6.790E-01  1.542E+01  6.166E-02  1.226E+00
   1    7    7     5     2    1.0205E+01  2.7894E-01   9.9265E+00  0.000E+00  0.000E+00  0.000E+00  1.05417E+03  6.732E-01  1.519E+01  7.594E-02  1.224E+00
   1    8    7     5     3    9.9265E+00  1.9221E-01   9.7343E+00  0.000E+00  0.000E+00  0.000E+00  1.04992E+03  6.676E-01  1.497E+01  5.241E-02  1.223E+00
   1    8    6     5     4    9.7343E+00  1.3577E-01   9.5985E+00  0.000E+00  0.000E+00  0.000E+00  1.04691E+03  6.637E-01  1.482E+01  3.706E-02  1.221E+00
   1    9    6     6     1    2.4276E+01  2.5176E-01   2.4024E+01  0.000E+00  0.000E+00  0.000E+00  1.04392E+03  1.196E+00  1.200E+01  6.000E-02  1.399E+00
   1   10    7     6     2    2.4024E+01  2.5131E-01   2.3773E+01  0.000E+00  0.000E+00  0.000E+00  1.03937E+03  1.188E+00  1.200E+01  6.000E-02  1.396E+00
   1   11    7     6     3    2.3773E+01  2.5086E-01   2.3522E+01  0.000E+00  0.000E+00  0.000E+00  1.03482E+03  1.181E+00  1.200E+01  6.000E-02  1.394E+00
   1   12    7     6     4    2.3522E+01  2.5041E-01   2.3271E+01  0.000E+00  0.000E+00  0.000E+00  1.03026E+03  1.173E+00  1.200E+01  6.000E-02  1.391E+00
   1   13    7     6     5    2.3271E+01  7.0504E-03   2.3264E+01  0.000E+00  0.000E+00  0.000E+00  1.02708E+03  1.170E+00  1.200E+01  2.400E-02  9.792E-02
   1   14    9     7     1    1.5000E+02  1.3523E+00   1.4865E+02  0.000E+00  0.000E+00  0.000E+00  1.03987E+03  2.288E+00  5.529E+01  5.593E-01  8.060E-01
   1   13    8     7     2    1.4865E+02  1.9164E+00   1.4673E+02  0.000E+00  0.000E+00  0.000E+00  1.03478E+03  2.279E+00  5.526E+01  6.148E-01  1.039E+00
   1   13    7     7     3    1.4673E+02  1.6216E+00   1.4511E+02  0.000E+00  0.000E+00  0.000E+00  1.02969E+03  2.270E+00  5.521E+01  5.584E-01  9.680E-01
   1   13    6     8     1    1.6837E+02  1.0603E+00   1.6731E+02  0.000E+00  0.000E+00  0.000E+00  1.02481E+03  2.938E+00  4.260E+01  4.341E-01  8.141E-01
   1   13    5     8     2    1.6731E+02  3.0390E-01   1.6701E+02  0.000E+00  0.000E+00  0.000E+00  1.01856E+03  2.934E+00  4.254E+01  4.335E-01  2.337E-01
   1   13    4     8     3    1.6701E+02 -2.0092E+00   1.6902E+02  0.000E+00  0.000E+00  0.000E+00  1.01231E+03  2.939E+00  4.262E+01  4.343E+00 -1.542E-01
   1   13    3     8     4    1.6902E+02 -3.4390E+00   1.7246E+02  0.000E+00  0.000E+00  0.000E+00  1.00608E+03  2.957E+00  4.288E+01  4.369E+00 -2.624E-01
   1   13    2     8     5    1.7246E+02 -2.5252E+00   1.7498E+02  0.000E+00  0.000E+00  0.000E+00  9.99851E+02  2.976E+00  4.316E+01  4.398E+00 -1.914E-01
   1   13    1     8     6    1.7498E+02 -1.9693E+00   1.7695E+02  0.000E+00  0.000E+00  0.000E+00  9.94866E+02  2.991E+00  4.336E+01  2.651E+00 -2.476E-01





UNSATURATED ZONE PACKAGE VOLUMETRIC BUDGET FOR  TIME STEP    30 STRESS PERIOD   33
  ------------------------------------------------------------------------------



     CUMULATIVE VOLUMES      L**3       RATES FOR THIS TIME STEP      L**3/T
     ------------------                 ------------------------

           IN:                                      IN:
           ---                                      ---
        INFILTRATION =  1470723331.9900          INFILTRATION =          49.5675

          OUT:                                     OUT:
          ----                                     ----
              UZF ET =  1253483321.6888                UZF ET =          49.5675
        UZF RECHARGE =   144779183.7052          UZF RECHARGE =       0.0000E+00

            IN - OUT =    72460826.5960              IN - OUT =       0.0000E+00

          STORAGE:                                 STORAGE:
          --------                                 --------
      STORAGE CHANGE =    72460844.9882        STORAGE CHANGE =      -5.5736E-14

 PERCENT DISCREPANCY IS DIFFERENCE BETWEEN IN-OUT MINUS CHANGE IN STORAGE
 DIVIDED BY THE AVERAGE OF IN AND OUT TIMES 100

 PERCENT DISCREPANCY =           0.00     PERCENT DISCREPANCY =           0.00






1
  VOLUMETRIC BUDGET FOR AGRICULTURAL FIELDS AT  END OF TIME STEP   30, STRESS PERIOD  33
  ------------------------------------------------------------------------------

     CUMULATIVE VOLUMES      L**3       RATES FOR THIS TIME STEP      L**3/T
     ------------------                 ------------------------

           IN:                                      IN:
           ---                                      ---
               AG WELLS  =  1399321472.0000                 AG WELLS  =          48.7200
      DIVERSION SEGMENTS =           0.0000        DIVERSION SEGMENTS =           0.0000
           GW IRRIGATION =           0.0000             GW IRRIGATION =           0.0000
           SW IRRIGATION =           0.0000             SW IRRIGATION =           0.0000
        SYSTEM LOSSES GW =           0.0000          SYSTEM LOSSES GW =           0.0000
        SYSTEM LOSSES SW =           0.0000          SYSTEM LOSSES SW =           0.0000

                TOTAL IN =  1399321472.0000                  TOTAL IN =          48.7200

          OUT:                                     OUT:
          ----                                     ----
               AG WELLS  =           0.0000                 AG WELLS  =           0.0000
      DIVERSION SEGMENTS =           0.0000        DIVERSION SEGMENTS =           0.0000
           GW IRRIGATION =  1399321472.0000             GW IRRIGATION =          48.7200
           SW IRRIGATION =           0.0000             SW IRRIGATION =           0.0000
        SYSTEM LOSSES GW =           0.0000          SYSTEM LOSSES GW =           0.0000
        SYSTEM LOSSES SW =           0.0000          SYSTEM LOSSES SW =           0.0000

               TOTAL OUT =  1399321472.0000                 TOTAL OUT =          48.7200

                IN - OUT =           0.0000                  IN - OUT =           0.0000

     PERCENT DISCREPANCY =           0.00         PERCENT DISCREPANCY =           0.00



1
  VOLUMETRIC BUDGET FOR ENTIRE MODEL AT END OF TIME STEP   30, STRESS PERIOD  33
  ------------------------------------------------------------------------------

     CUMULATIVE VOLUMES      L**3       RATES FOR THIS TIME STEP      L**3/T
     ------------------                 ------------------------

           IN:                                      IN:
           ---                                      ---
             STORAGE     =  1692944128.0000               STORAGE     =          46.7375
       CONSTANT HEAD     =           0.0000         CONSTANT HEAD     =           0.0000
     HEAD DEP BOUNDS     =    24069492.0000       HEAD DEP BOUNDS     =           0.2869
      STREAM LEAKAGE     =  1034944448.0000        STREAM LEAKAGE     =          11.9902
        UZF RECHARGE     =   144779152.0000          UZF RECHARGE     =           0.0000
               GW ET     =           0.0000                 GW ET     =           0.0000
     SURFACE LEAKAGE     =           0.0000       SURFACE LEAKAGE     =           0.0000
           AG WELLS      =           0.0000             AG WELLS      =           0.0000

                TOTAL IN =  2896737280.0000                  TOTAL IN =          59.0146

          OUT:                                     OUT:
          ----                                     ----
             STORAGE     =   588614912.0000               STORAGE     =       6.2944E-02
       CONSTANT HEAD     =           0.0000         CONSTANT HEAD     =           0.0000
     HEAD DEP BOUNDS     =    24671564.0000       HEAD DEP BOUNDS     =           0.2891
      STREAM LEAKAGE     =   866619584.0000        STREAM LEAKAGE     =           9.9427
        UZF RECHARGE     =           0.0000          UZF RECHARGE     =           0.0000
               GW ET     =    17516202.0000                 GW ET     =           0.0000
     SURFACE LEAKAGE     =           0.0000       SURFACE LEAKAGE     =           0.0000
           AG WELLS      =  1399321472.0000             AG WELLS      =          48.7200

               TOTAL OUT =  2896743680.0000                 TOTAL OUT =          59.0147

                IN - OUT =       -6400.0000                  IN - OUT =      -1.6785E-04

     PERCENT DISCREPANCY =          -0.00         PERCENT DISCREPANCY =          -0.00






         TIME SUMMARY AT END OF TIME STEP   30 IN STRESS PERIOD   33
                    SECONDS     MINUTES      HOURS       DAYS        YEARS
                    -----------------------------------------------------------
   TIME STEP LENGTH  87667.      1461.1      24.352      1.0147     2.77799E-03
 STRESS PERIOD TIME 2.63000E+06  43833.      730.56      30.440     8.33397E-02
         TOTAL TIME 8.42463E+07 1.40410E+06  23402.      975.07      2.6696    
1
1
                            STRESS PERIOD NO.   34, LENGTH =   2630000.    
                            -----------------------------------------------

                              NUMBER OF TIME STEPS =    30

                               MULTIPLIER FOR DELT =     1.000

                            INITIAL TIME STEP SIZE =   87666.66    

 REUSING NON-PARAMETER GHB CELLS FROM LAST STRESS PERIOD

      2 GHB CELLS

 REUSING STREAM SEGMENT DATA FROM LAST STRESS PERIOD



            AREAL INFILTRATION RATE
 READING ON UNIT   19 WITH FORMAT: (FREE)              

            1           2           3           4           5           6           7           8           9          10
 ........................................................................................................................
   1   1.0000E-10  2.0000E-10   0.000       0.000       0.000       0.000       0.000       0.000       0.000       0.000    
   2   2.0000E-10  1.0000E-10  2.0000E-10   0.000       0.000      8.0000E-10  8.0000E-10  5.0000E-10   0.000       0.000    
   3    0.000      5.0000E-10  1.0000E-10  1.0000E-10  8.0000E-10  8.0000E-10  5.0000E-10  5.0000E-10   0.000       0.000    
   4   8.0000E-10  5.0000E-10  1.0000E-10  1.0000E-10  1.0000E-10  1.0000E-10  1.0000E-10  1.0000E-10  2.0000E-10   0.000    
   5   8.0000E-10  5.0000E-10  1.0000E-10  1.0000E-10  1.0000E-10  1.0000E-10  1.0000E-10  1.0000E-10  1.0000E-10  1.0000E-10
   6   8.0000E-10  5.0000E-10  5.0000E-10  2.0000E-10  2.0000E-10  1.0000E-10  1.0000E-10  1.0000E-10  1.0000E-10  5.0000E-10
   7   8.0000E-10  5.0000E-10  5.0000E-10  2.0000E-10  2.0000E-10  1.0000E-10  1.0000E-10  2.0000E-10  2.0000E-10   0.000    
   8    0.000      5.0000E-10  5.0000E-10  2.0000E-10  2.0000E-10  1.0000E-10  1.0000E-10  2.0000E-10  5.0000E-10   0.000    
   9    0.000      5.0000E-10  5.0000E-10  2.0000E-10  2.0000E-10  1.0000E-10  1.0000E-10  2.0000E-10  5.0000E-10   0.000    
  10    0.000      5.0000E-10  5.0000E-10  2.0000E-10  2.0000E-10  1.0000E-10  1.0000E-10  2.0000E-10  5.0000E-10  8.0000E-10
  11    0.000      1.0000E-10  1.0000E-10  1.0000E-10  1.0000E-10  1.0000E-10  1.0000E-10  2.0000E-10  5.0000E-10   0.000    
  12   1.0000E-10  1.0000E-10  1.0000E-10  1.0000E-10  1.0000E-10  1.0000E-10  1.0000E-10  1.0000E-10  2.0000E-10   0.000    
  13   1.0000E-10  1.0000E-10  2.0000E-10  2.0000E-10  2.0000E-10  2.0000E-10  2.0000E-10  1.0000E-10  1.0000E-10   0.000    
  14    0.000      2.0000E-10  5.0000E-10  5.0000E-10  5.0000E-10  5.0000E-10  5.0000E-10  2.0000E-10  1.0000E-10   0.000    
  15    0.000       0.000      8.0000E-10  8.0000E-10  8.0000E-10  8.0000E-10   0.000       0.000       0.000       0.000    

                  ET RATE =  7.500000E-08

 USING ET EXTINCTION DEPTH FROM PREVIOUS STRESS PERIOD. CURRENT PERIOD IS:      34

 USING EXTINCTION WATER CONTENT FROM PREVIOUS STRESS PERIOD. CURRENT PERIOD IS:      34

 USING AIR ENTRY PRESSURE FROM PREVIOUS STRESS PERIOD. CURRENT PERIOD IS:      34

 USING ROOT PRESSURE HEAD FROM PREVIOUS STRESS PERIOD. CURRENT PERIOD IS:      34

 USING ROOT ACTIVITY FROM PREVIOUS STRESS PERIOD. CURRENT PERIOD IS:      34

 PROCESSING AG STRESS PERIOD DATA

 READING AG STRESS PERIOD DATA

 READING IRRIGATION WELL

 END PROCESSING AG STRESS PERIOD DATA OPTIONS
 
 SOLVING FOR HEAD 
                                                   Max.-Head-Change                         Max.-Flux-Residual
  Residual-Control   Outer-Iter.   Inner-Iter.     Column Row Layer    Maximum-Head-Change  Column Row Layer    Maximum-Flux-Residual          L2-NORM 
          0                 1           2             5    8     1       0.8271570243E-01       5    8    1         0.4490366956E+01      0.1200361983E+02
          0                 2           2             5    8     1      -0.8045837706E-02       5    8    1        -0.4490266507E+00      0.1200334363E+01
          0                 3           2             5    8     1       0.5478910484E-03       5    8    1         0.3143185608E-01      0.8402344899E-01
          0                 4           1             5    8     1      -0.2180109084E-04       5    8    1        -0.1285564251E-02      0.3436562305E-02

    ------------------------------------------------
       NWT REQUIRED            4 OUTER ITERATIONS 
       AND A TOTAL OF          7 INNER ITERATIONS.
    ------------------------------------------------

 NO OUTPUT CONTROL FOR STRESS PERIOD   34   TIME STEP    1
 
 SOLVING FOR HEAD 
                                                   Max.-Head-Change                         Max.-Flux-Residual
  Residual-Control   Outer-Iter.   Inner-Iter.     Column Row Layer    Maximum-Head-Change  Column Row Layer    Maximum-Flux-Residual          L2-NORM 
          0                 1           2             5    8     1       0.7924220047E-01       5    8    1         0.4298302142E+01      0.1164616824E+02
          0                 2           2             5    8     1      -0.7707970327E-02       5    8    1        -0.4298208381E+00      0.1164591966E+01
          0                 3           2             5    8     1       0.5248834382E-03       5    8    1         0.3008744229E-01      0.8152145443E-01
          0                 4           1             5    8     1      -0.2088559731E-04       5    8    1        -0.1230577692E-02      0.3334231848E-02

    ------------------------------------------------
       NWT REQUIRED            4 OUTER ITERATIONS 
       AND A TOTAL OF          7 INNER ITERATIONS.
    ------------------------------------------------

 NO OUTPUT CONTROL FOR STRESS PERIOD   34   TIME STEP    2
 
 SOLVING FOR HEAD 
                                                   Max.-Head-Change                         Max.-Flux-Residual
  Residual-Control   Outer-Iter.   Inner-Iter.     Column Row Layer    Maximum-Head-Change  Column Row Layer    Maximum-Flux-Residual          L2-NORM 
          0                 1           2             5    8     1       0.7597538207E-01       5    8    1         0.4117801657E+01      0.1130720493E+02
          0                 2           2             5    8     1      -0.7390206907E-02       5    8    1        -0.4117714088E+00      0.1130698126E+01
          0                 3           2             5    8     1       0.5032448402E-03       5    8    1         0.2882397584E-01      0.7914885901E-01
          0                 4           1             5    8     1      -0.2002457779E-04       5    8    1        -0.1178901858E-02      0.3237191330E-02

    ------------------------------------------------
       NWT REQUIRED            4 OUTER ITERATIONS 
       AND A TOTAL OF          7 INNER ITERATIONS.
    ------------------------------------------------

 NO OUTPUT CONTROL FOR STRESS PERIOD   34   TIME STEP    3
 
 SOLVING FOR HEAD 
                                                   Max.-Head-Change                         Max.-Flux-Residual
  Residual-Control   Outer-Iter.   Inner-Iter.     Column Row Layer    Maximum-Head-Change  Column Row Layer    Maximum-Flux-Residual          L2-NORM 
          0                 1           2             5    7     1       0.7388302682E-01       5    8    1         0.3948048414E+01      0.1098542195E+02
          0                 2           2             5    7     1      -0.7186742597E-02       5    8    1        -0.3947966581E+00      0.1098522069E+01
          0                 3           2             5    7     1       0.4893890094E-03       5    8    1         0.2763573735E-01      0.7689651318E-01
          0                 4           1             5    7     1      -0.1947324691E-04       5    8    1        -0.1130302878E-02      0.3145421681E-02

    ------------------------------------------------
       NWT REQUIRED            4 OUTER ITERATIONS 
       AND A TOTAL OF          7 INNER ITERATIONS.
    ------------------------------------------------

 NO OUTPUT CONTROL FOR STRESS PERIOD   34   TIME STEP    4
 
 SOLVING FOR HEAD 
                                                   Max.-Head-Change                         Max.-Flux-Residual
  Residual-Control   Outer-Iter.   Inner-Iter.     Column Row Layer    Maximum-Head-Change  Column Row Layer    Maximum-Flux-Residual          L2-NORM 
          0                 1           2             5    8     1       0.1121755594E+00       5    8    1         0.6114988914E+01      0.1170880114E+02
          0                 2           2             5    8     1       0.2942264309E-01       5    8    1         0.1630785067E+01      0.1912182252E+01
          0                 3           2             5    8     1      -0.2860611882E-02       5    8    1        -0.1628198360E+00      0.1773368773E+00
          0                 4           1             5    8     1       0.1946565238E-03       5    8    1         0.1137698958E-01      0.1174444169E-01
          0                 5           1             5    8     1      -0.7736304425E-05       5    8    1        -0.4642802346E-03      0.4663973999E-03

    ------------------------------------------------
       NWT REQUIRED            5 OUTER ITERATIONS 
       AND A TOTAL OF          8 INNER ITERATIONS.
    ------------------------------------------------

 NO OUTPUT CONTROL FOR STRESS PERIOD   34   TIME STEP    5
 
 SOLVING FOR HEAD 
                                                   Max.-Head-Change                         Max.-Flux-Residual
  Residual-Control   Outer-Iter.   Inner-Iter.     Column Row Layer    Maximum-Head-Change  Column Row Layer    Maximum-Flux-Residual          L2-NORM 
          0                 1           2             5    8     1       0.1456699549E+00       5    8    1         0.7959375489E+01      0.1259768992E+02
          0                 2           2             5    8     1      -0.1416290077E-01       5    8    1        -0.7955580445E+00      0.1259490790E+01
          0                 3           2             5    8     1       0.9637412443E-03       5    8    1         0.5564823843E-01      0.8813865246E-01
          0                 4           1             5    8     1      -0.3830233015E-04       5    8    1        -0.2273269186E-02      0.3603140950E-02

    ------------------------------------------------
       NWT REQUIRED            4 OUTER ITERATIONS 
       AND A TOTAL OF          7 INNER ITERATIONS.
    ------------------------------------------------

 NO OUTPUT CONTROL FOR STRESS PERIOD   34   TIME STEP    6
 
 SOLVING FOR HEAD 
                                                   Max.-Head-Change                         Max.-Flux-Residual
  Residual-Control   Outer-Iter.   Inner-Iter.     Column Row Layer    Maximum-Head-Change  Column Row Layer    Maximum-Flux-Residual          L2-NORM 
          0                 1           2             5    8     1       0.1386632919E+00       5    8    1         0.7569661857E+01      0.1219019789E+02
          0                 2           2             5    8     1      -0.1348163843E-01       5    8    1        -0.7566026239E+00      0.1218771762E+01
          0                 3           2             5    8     1       0.9173836939E-03       5    8    1         0.5292333887E-01      0.8528996326E-01
          0                 4           1             5    8     1      -0.3645992359E-04       5    8    1        -0.2161952671E-02      0.3486740771E-02

    ------------------------------------------------
       NWT REQUIRED            4 OUTER ITERATIONS 
       AND A TOTAL OF          7 INNER ITERATIONS.
    ------------------------------------------------

 NO OUTPUT CONTROL FOR STRESS PERIOD   34   TIME STEP    7
 
 SOLVING FOR HEAD 
                                                   Max.-Head-Change                         Max.-Flux-Residual
  Residual-Control   Outer-Iter.   Inner-Iter.     Column Row Layer    Maximum-Head-Change  Column Row Layer    Maximum-Flux-Residual          L2-NORM 
          0                 1           2             5    8     1       0.1321127166E+00       5    8    1         0.7205565917E+01      0.1180843978E+02
          0                 2           2             5    8     1      -0.1284472503E-01       5    8    1        -0.7202081577E+00      0.1180611451E+01
          0                 3           2             5    8     1       0.8740439043E-03       5    8    1         0.5037757511E-01      0.8262026201E-01
          0                 4           1             5    8     1      -0.3473745316E-04       5    8    1        -0.2057954239E-02      0.3377652310E-02

    ------------------------------------------------
       NWT REQUIRED            4 OUTER ITERATIONS 
       AND A TOTAL OF          7 INNER ITERATIONS.
    ------------------------------------------------

 NO OUTPUT CONTROL FOR STRESS PERIOD   34   TIME STEP    8
 
 SOLVING FOR HEAD 
                                                   Max.-Head-Change                         Max.-Flux-Residual
  Residual-Control   Outer-Iter.   Inner-Iter.     Column Row Layer    Maximum-Head-Change  Column Row Layer    Maximum-Flux-Residual          L2-NORM 
          0                 1           2             5    8     1       0.1259844573E+00       5    8    1         0.6865178571E+01      0.1145015998E+02
          0                 2           2             5    7     1      -0.6748589456E-02       5    7    1        -0.3730518664E+00      0.9181884439E+00
          0                 3           2             4    7     1       0.4547317826E-03       5    7    1         0.2611352484E-01      0.6701830398E-01
          0                 4           1             5    8     1      -0.9372158812E-04       5    8    1        -0.5290994967E-02      0.5908016206E-02

    ------------------------------------------------
       NWT REQUIRED            4 OUTER ITERATIONS 
       AND A TOTAL OF          7 INNER ITERATIONS.
    ------------------------------------------------

 NO OUTPUT CONTROL FOR STRESS PERIOD   34   TIME STEP    9
 
 SOLVING FOR HEAD 
                                                   Max.-Head-Change                         Max.-Flux-Residual
  Residual-Control   Outer-Iter.   Inner-Iter.     Column Row Layer    Maximum-Head-Change  Column Row Layer    Maximum-Flux-Residual          L2-NORM 
          0                 1           2             5    8     1       0.1196254213E+00       5    8    1         0.6511929546E+01      0.1109737360E+02
          0                 2           2             5    8     1       0.3140352805E-01       5    8    1         0.1741634635E+01      0.1959775743E+01
          0                 3           2             5    8     1       0.8243863159E-02       5    8    1         0.4542115107E+00      0.4586187169E+00
          0                 4           1             5    8     1       0.2164142179E-02       5    8    1         0.1194184116E+00      0.1194425511E+00
          0                 5           1             5    8     1       0.5681214620E-03       5    8    1         0.3134325525E-01      0.3134383704E-01
          0                 6           1             5    8     1       0.1491408874E-03       5    8    1         0.8228247230E-02      0.8228324976E-02
          0                 7           1             5    8     1       0.3915184924E-04       5    8    1         0.2160046586E-02      0.2160068389E-02

    ------------------------------------------------
       NWT REQUIRED            7 OUTER ITERATIONS 
       AND A TOTAL OF         10 INNER ITERATIONS.
    ------------------------------------------------

 NO OUTPUT CONTROL FOR STRESS PERIOD   34   TIME STEP   10
 
 SOLVING FOR HEAD 
                                                   Max.-Head-Change                         Max.-Flux-Residual
  Residual-Control   Outer-Iter.   Inner-Iter.     Column Row Layer    Maximum-Head-Change  Column Row Layer    Maximum-Flux-Residual          L2-NORM 
          0                 1           2             5    8     1       0.1109205293E+00       5    8    1         0.6027437314E+01      0.1070022675E+02
          0                 2           2             5    7     1      -0.6646443525E-02       5    7    1        -0.3704148883E+00      0.8958661514E+00
          0                 3           2             5    7     1       0.4525985180E-03       5    7    1         0.2598885509E-01      0.6353472832E-01
          0                 4           1             5    7     1      -0.1800948271E-04       5    7    1        -0.1068749891E-02      0.2717666648E-02

    ------------------------------------------------
       NWT REQUIRED            4 OUTER ITERATIONS 
       AND A TOTAL OF          7 INNER ITERATIONS.
    ------------------------------------------------

 NO OUTPUT CONTROL FOR STRESS PERIOD   34   TIME STEP   11
 
 SOLVING FOR HEAD 
                                                   Max.-Head-Change                         Max.-Flux-Residual
  Residual-Control   Outer-Iter.   Inner-Iter.     Column Row Layer    Maximum-Head-Change  Column Row Layer    Maximum-Flux-Residual          L2-NORM 
          0                 1           2             5    8     1       0.1053844489E+00       5    8    1         0.5720430997E+01      0.1039243552E+02
          0                 2           2             5    8     1      -0.1024595070E-01       5    8    1        -0.5717577346E+00      0.1039074769E+01
          0                 3           2             5    8     1       0.6972059612E-03       5    8    1         0.3999357681E-01      0.7271895638E-01
          0                 4           1             5    8     1      -0.2770931334E-04       5    8    1        -0.1633751858E-02      0.2973114365E-02

    ------------------------------------------------
       NWT REQUIRED            4 OUTER ITERATIONS 
       AND A TOTAL OF          7 INNER ITERATIONS.
    ------------------------------------------------

 NO OUTPUT CONTROL FOR STRESS PERIOD   34   TIME STEP   12
 
 SOLVING FOR HEAD 
                                                   Max.-Head-Change                         Max.-Flux-Residual
  Residual-Control   Outer-Iter.   Inner-Iter.     Column Row Layer    Maximum-Head-Change  Column Row Layer    Maximum-Flux-Residual          L2-NORM 
          0                 1           2             5    8     1       0.1009708606E+00       5    8    1         0.5476276396E+01      0.1011936060E+02
          0                 2           2             5    8     1      -0.9816828168E-02       5    8    1        -0.5473532628E+00      0.1011777191E+01
          0                 3           2             5    8     1       0.6680055199E-03       5    8    1         0.3828650195E-01      0.7080905678E-01
          0                 4           1             5    8     1      -0.2654878879E-04       5    8    1        -0.1564015600E-02      0.2895065450E-02

    ------------------------------------------------
       NWT REQUIRED            4 OUTER ITERATIONS 
       AND A TOTAL OF          7 INNER ITERATIONS.
    ------------------------------------------------

 NO OUTPUT CONTROL FOR STRESS PERIOD   34   TIME STEP   13
 
 SOLVING FOR HEAD 
                                                   Max.-Head-Change                         Max.-Flux-Residual
  Residual-Control   Outer-Iter.   Inner-Iter.     Column Row Layer    Maximum-Head-Change  Column Row Layer    Maximum-Flux-Residual          L2-NORM 
          0                 1           2             4    8     1       0.1508227637E+00       4    8    1         0.8076669065E+01      0.1225314821E+02
          0                 2           2             4    8     1      -0.1466365890E-01       4    8    1        -0.8072713357E+00      0.1224920369E+01
          0                 3           2             4    8     1       0.9977973334E-03       4    8    1         0.5646675389E-01      0.8570492486E-01
          0                 4           1             4    8     1      -0.3965454722E-04       4    8    1        -0.2306649338E-02      0.3502671278E-02

    ------------------------------------------------
       NWT REQUIRED            4 OUTER ITERATIONS 
       AND A TOTAL OF          7 INNER ITERATIONS.
    ------------------------------------------------

 NO OUTPUT CONTROL FOR STRESS PERIOD   34   TIME STEP   14
 
 SOLVING FOR HEAD 
                                                   Max.-Head-Change                         Max.-Flux-Residual
  Residual-Control   Outer-Iter.   Inner-Iter.     Column Row Layer    Maximum-Head-Change  Column Row Layer    Maximum-Flux-Residual          L2-NORM 
          0                 1           2             5    7     1       0.1492418631E+00       5    7    1         0.8074312594E+01      0.1399906594E+02
          0                 2           2             4    8     1       0.3017994882E-01       4    8    1         0.1648020153E+01      0.2014391007E+01
          0                 3           2             4    8     1       0.8109494103E-02       4    8    1         0.4391754934E+00      0.4466752098E+00
          0                 4           2             4    8     1       0.2179065810E-02       4    8    1         0.1182354115E+00      0.1182767570E+00
          0                 5           2             4    8     1       0.5855271618E-03       4    8    1         0.3176174422E-01      0.3176234917E-01
          0                 6           2             4    8     1       0.1573344500E-03       4    8    1         0.8534884189E-02      0.8534944257E-02
          0                 7           1             4    8     1       0.4227665520E-04       4    8    1         0.2293361350E-02      0.2293380050E-02

    ------------------------------------------------
       NWT REQUIRED            7 OUTER ITERATIONS 
       AND A TOTAL OF         13 INNER ITERATIONS.
    ------------------------------------------------

 NO OUTPUT CONTROL FOR STRESS PERIOD   34   TIME STEP   15
 
 SOLVING FOR HEAD 
                                                   Max.-Head-Change                         Max.-Flux-Residual
  Residual-Control   Outer-Iter.   Inner-Iter.     Column Row Layer    Maximum-Head-Change  Column Row Layer    Maximum-Flux-Residual          L2-NORM 
          0                 1           2             5    7     1       0.1452009753E+00       5    7    1         0.7777786948E+01      0.1516389403E+02
          0                 2           2             5    7     1       0.2399918669E-01       5    7    1         0.1336947643E+01      0.1748079674E+01
          0                 3           2             5    7     1       0.6322224174E-02       5    7    1         0.3468036288E+00      0.3647699951E+00
          0                 4           2             5    7     1       0.1666160060E-02       5    7    1         0.9170143568E-01      0.9401151275E-01
          0                 5           2             5    7     1       0.4392728003E-03       5    7    1         0.2415693006E-01      0.2484484069E-01
          0                 6           2             5    7     1       0.1158566910E-03       5    7    1         0.6369499336E-02      0.6580156309E-02
          0                 7           1             5    7     1       0.3056858522E-04       5    7    1         0.1680111288E-02      0.1743947962E-02

    ------------------------------------------------
       NWT REQUIRED            7 OUTER ITERATIONS 
       AND A TOTAL OF         13 INNER ITERATIONS.
    ------------------------------------------------

 NO OUTPUT CONTROL FOR STRESS PERIOD   34   TIME STEP   16
 
 SOLVING FOR HEAD 
                                                   Max.-Head-Change                         Max.-Flux-Residual
  Residual-Control   Outer-Iter.   Inner-Iter.     Column Row Layer    Maximum-Head-Change  Column Row Layer    Maximum-Flux-Residual          L2-NORM 
          0                 1           2             5    7     1       0.1382922536E+00       5    7    1         0.7396949042E+01      0.1471094232E+02
          0                 2           2             5    8     1       0.2520473715E-01       5    8    1         0.1385473062E+01      0.2111517755E+01
          0                 3           2             5    8     1       0.6616217305E-02       5    8    1         0.3659137301E+00      0.3902845237E+00
          0                 4           2             5    8     1       0.1736753095E-02       5    8    1         0.9574449190E-01      0.9610546957E-01
          0                 5           1             5    8     1       0.4558973495E-03       5    8    1         0.2515751460E-01      0.2515901624E-01
          0                 6           1             5    8     1       0.1196729692E-03       5    8    1         0.6602323783E-02      0.6602555979E-02
          0                 7           1             5    8     1       0.3141413538E-04       5    8    1         0.1733169533E-02      0.1733217275E-02

    ------------------------------------------------
       NWT REQUIRED            7 OUTER ITERATIONS 
       AND A TOTAL OF         11 INNER ITERATIONS.
    ------------------------------------------------

 NO OUTPUT CONTROL FOR STRESS PERIOD   34   TIME STEP   17
 
 SOLVING FOR HEAD 
                                                   Max.-Head-Change                         Max.-Flux-Residual
  Residual-Control   Outer-Iter.   Inner-Iter.     Column Row Layer    Maximum-Head-Change  Column Row Layer    Maximum-Flux-Residual          L2-NORM 
          0                 1           2             5    7     1       0.1331378400E+00       5    7    1         0.7116130080E+01      0.1429864656E+02
          0                 2           2             5    7     1      -0.1264460016E-01       5    7    1        -0.7112622354E+00      0.1507454519E+01
          0                 3           2             5    8     1      -0.1153719247E-02       5    8    1        -0.6693742808E-01      0.1158607438E+00
          0                 4           1             5    8     1       0.7850868802E-04       5    8    1         0.4640255086E-02      0.6057432116E-02

    ------------------------------------------------
       NWT REQUIRED            4 OUTER ITERATIONS 
       AND A TOTAL OF          7 INNER ITERATIONS.
    ------------------------------------------------

 NO OUTPUT CONTROL FOR STRESS PERIOD   34   TIME STEP   18
 
 SOLVING FOR HEAD 
                                                   Max.-Head-Change                         Max.-Flux-Residual
  Residual-Control   Outer-Iter.   Inner-Iter.     Column Row Layer    Maximum-Head-Change  Column Row Layer    Maximum-Flux-Residual          L2-NORM 
          0                 1           2             5    7     1       0.1301227242E+00       5    7    1         0.6935167859E+01      0.1431884061E+02
          0                 2           2             4    7     1       0.2609753792E-01       4    7    1         0.1442587885E+01      0.1881814722E+01
          0                 3           2             4    7     1       0.6984606628E-02       4    7    1         0.3784167690E+00      0.3945882664E+00
          0                 4           2             4    7     1       0.1869317285E-02       4    7    1         0.1017590390E+00      0.1037642377E+00
          0                 5           1             4    7     1       0.5002914104E-03       4    7    1         0.2721446361E-01      0.2772322690E-01
          0                 6           1             4    7     1       0.1338943688E-03       4    7    1         0.7283948730E-02      0.7415908817E-02
          0                 7           1             4    7     1       0.3583445239E-04       4    7    1         0.1949400590E-02      0.1983641680E-02

    ------------------------------------------------
       NWT REQUIRED            7 OUTER ITERATIONS 
       AND A TOTAL OF         11 INNER ITERATIONS.
    ------------------------------------------------

 NO OUTPUT CONTROL FOR STRESS PERIOD   34   TIME STEP   19
 
 SOLVING FOR HEAD 
                                                   Max.-Head-Change                         Max.-Flux-Residual
  Residual-Control   Outer-Iter.   Inner-Iter.     Column Row Layer    Maximum-Head-Change  Column Row Layer    Maximum-Flux-Residual          L2-NORM 
          0                 1           2             4    7     1       0.1575197688E+00       4    7    1         0.8344303659E+01      0.1551072473E+02
          0                 2           2             5    6     1       0.3020642284E-01       5    6    1         0.1680448780E+01      0.2080261122E+01
          0                 3           2             5    6     1       0.7932364941E-02       5    6    1         0.4365454207E+00      0.4884975156E+00
          0                 4           2             5    6     1       0.2083097510E-02       5    6    1         0.1149347935E+00      0.1279930818E+00
          0                 5           2             5    6     1       0.5470370955E-03       5    6    1         0.3017137126E-01      0.3374640486E-01
          0                 6           2             5    6     1       0.1436561284E-03       5    6    1         0.7923651580E-02      0.8903916834E-02
          0                 7           1             5    6     1       0.3772523610E-04       5    6    1         0.2080797961E-02      0.2349607814E-02

    ------------------------------------------------
       NWT REQUIRED            7 OUTER ITERATIONS 
       AND A TOTAL OF         13 INNER ITERATIONS.
    ------------------------------------------------

 NO OUTPUT CONTROL FOR STRESS PERIOD   34   TIME STEP   20
 
 SOLVING FOR HEAD 
                                                   Max.-Head-Change                         Max.-Flux-Residual
  Residual-Control   Outer-Iter.   Inner-Iter.     Column Row Layer    Maximum-Head-Change  Column Row Layer    Maximum-Flux-Residual          L2-NORM 
          0                 1           2             4    7     1       0.1543777334E+00       4    7    1         0.8175021643E+01      0.1513663989E+02
          0                 2           2             4    8     1       0.3325517030E-01       4    8    1         0.1820313543E+01      0.2133443278E+01
          0                 3           2             5    7     1       0.1583730341E-02       5    7    1         0.8578281478E-01      0.1373862211E+00
          0                 4           2             5    7     1       0.4155206956E-03       5    7    1         0.2299954245E-01      0.2444318898E-01
          0                 5           1             5    7     1       0.1090190258E-03       5    7    1         0.6015649226E-02      0.6040776791E-02
          0                 6           1             5    7     1       0.2860304082E-04       5    7    1         0.1578356543E-02      0.1578642121E-02

    ------------------------------------------------
       NWT REQUIRED            6 OUTER ITERATIONS 
       AND A TOTAL OF         10 INNER ITERATIONS.
    ------------------------------------------------

 NO OUTPUT CONTROL FOR STRESS PERIOD   34   TIME STEP   21
 
 SOLVING FOR HEAD 
                                                   Max.-Head-Change                         Max.-Flux-Residual
  Residual-Control   Outer-Iter.   Inner-Iter.     Column Row Layer    Maximum-Head-Change  Column Row Layer    Maximum-Flux-Residual          L2-NORM 
          0                 1           2             4    7     1       0.1523710342E+00       4    7    1         0.8070673810E+01      0.1480897822E+02
          0                 2           2             5    7     1       0.3253607796E-01       5    7    1         0.1824264445E+01      0.2255798998E+01
          0                 3           2             5    7     1       0.8536206763E-02       5    7    1         0.4691959351E+00      0.4785101971E+00
          0                 4           2             5    7     1       0.2239582214E-02       5    7    1         0.1236902861E+00      0.1237338516E+00
          0                 5           2             5    7     1       0.5875826463E-03       5    7    1         0.3242763023E-01      0.3242893558E-01
          0                 6           2             5    7     1       0.1541597643E-03       5    7    1         0.8508178154E-02      0.8508451564E-02
          0                 7           1             5    7     1       0.4044577171E-04       5    7    1         0.2232204835E-02      0.2232281749E-02

    ------------------------------------------------
       NWT REQUIRED            7 OUTER ITERATIONS 
       AND A TOTAL OF         13 INNER ITERATIONS.
    ------------------------------------------------

 NO OUTPUT CONTROL FOR STRESS PERIOD   34   TIME STEP   22
 
 SOLVING FOR HEAD 
                                                   Max.-Head-Change                         Max.-Flux-Residual
  Residual-Control   Outer-Iter.   Inner-Iter.     Column Row Layer    Maximum-Head-Change  Column Row Layer    Maximum-Flux-Residual          L2-NORM 
          0                 1           2             4    7     1       0.1515242284E+00       4    7    1         0.7966193207E+01      0.1611619885E+02
          0                 2           2             4    6     1      -0.1378272949E-01       4    6    1        -0.7682617198E+00      0.1407382195E+01
          0                 3           2             4    7     1       0.1064972359E-02       4    7    1         0.5603143277E-01      0.1120930979E+00
          0                 4           1             4    7     1       0.2849710965E-03       4    7    1         0.1558366814E-01      0.1606401780E-01
          0                 5           1             4    7     1       0.7625356901E-04       4    7    1         0.4147696694E-02      0.4148454105E-02

    ------------------------------------------------
       NWT REQUIRED            5 OUTER ITERATIONS 
       AND A TOTAL OF          8 INNER ITERATIONS.
    ------------------------------------------------

 NO OUTPUT CONTROL FOR STRESS PERIOD   34   TIME STEP   23
 
 SOLVING FOR HEAD 
                                                   Max.-Head-Change                         Max.-Flux-Residual
  Residual-Control   Outer-Iter.   Inner-Iter.     Column Row Layer    Maximum-Head-Change  Column Row Layer    Maximum-Flux-Residual          L2-NORM 
          0                 1           2             4    7     1       0.1487843648E+00       4    7    1         0.7821305572E+01      0.1583492251E+02
          0                 2           2             4    7     1       0.4041863337E-01       4    7    1         0.2193959494E+01      0.2918190735E+01
          0                 3           2             4    6     1       0.8066798776E-02       4    6    1         0.4358693445E+00      0.5061790795E+00
          0                 4           2             4    6     1       0.2152695260E-02       4    6    1         0.1177289324E+00      0.1204821456E+00
          0                 5           2             4    6     1       0.5744640392E-03       4    6    1         0.3129474365E-01      0.3140645941E-01
          0                 6           2             4    6     1       0.1533004861E-03       4    6    1         0.8358714598E-02      0.8377256068E-02
          0                 7           1             4    6     1       0.4090949684E-04       4    6    1         0.2230289097E-02      0.2235814514E-02

    ------------------------------------------------
       NWT REQUIRED            7 OUTER ITERATIONS 
       AND A TOTAL OF         13 INNER ITERATIONS.
    ------------------------------------------------

 NO OUTPUT CONTROL FOR STRESS PERIOD   34   TIME STEP   24
 
 SOLVING FOR HEAD 
                                                   Max.-Head-Change                         Max.-Flux-Residual
  Residual-Control   Outer-Iter.   Inner-Iter.     Column Row Layer    Maximum-Head-Change  Column Row Layer    Maximum-Flux-Residual          L2-NORM 
          0                 1           2             4    7     1       0.1449436029E+00       4    7    1         0.7617203739E+01      0.1550615209E+02
          0                 2           2             5    8     1       0.2135974476E-01       5    8    1         0.1197920274E+01      0.1898721149E+01
          0                 3           2             5    8     1       0.5606643611E-02       5    8    1         0.3080073883E+00      0.3286329690E+00
          0                 4           1             5    8     1       0.1471682224E-02       5    8    1         0.8125530562E-01      0.8147183152E-01
          0                 5           1             5    8     1       0.3863002267E-03       5    8    1         0.2131180499E-01      0.2131354894E-01
          0                 6           1             5    8     1       0.1013995491E-03       5    8    1         0.5594049822E-02      0.5594334662E-02
          0                 7           1             5    8     1       0.2661626499E-04       5    8    1         0.1468365486E-02      0.1468441238E-02

    ------------------------------------------------
       NWT REQUIRED            7 OUTER ITERATIONS 
       AND A TOTAL OF         10 INNER ITERATIONS.
    ------------------------------------------------

 NO OUTPUT CONTROL FOR STRESS PERIOD   34   TIME STEP   25
 
 SOLVING FOR HEAD 
                                                   Max.-Head-Change                         Max.-Flux-Residual
  Residual-Control   Outer-Iter.   Inner-Iter.     Column Row Layer    Maximum-Head-Change  Column Row Layer    Maximum-Flux-Residual          L2-NORM 
          0                 1           2             4    7     1       0.1436277308E+00       4    7    1         0.7550570066E+01      0.1521975081E+02
          0                 2           2             5    8     1       0.2075404430E-01       5    8    1         0.1146022183E+01      0.1895650455E+01
          0                 3           2             5    8     1       0.5511166916E-02       5    8    1         0.3008099769E+00      0.3881214242E+00
          0                 4           2             5    8     1       0.9882983493E-03       5    8    1         0.5383456985E-01      0.8268639289E-01
          0                 5           2             4    8     1       0.2378162023E-03       4    8    1         0.1298099959E-01      0.1772549245E-01
          0                 6           1             4    8     1       0.6389589725E-04       4    8    1         0.3460684938E-02      0.4491128433E-02

    ------------------------------------------------
       NWT REQUIRED            6 OUTER ITERATIONS 
       AND A TOTAL OF         11 INNER ITERATIONS.
    ------------------------------------------------

 NO OUTPUT CONTROL FOR STRESS PERIOD   34   TIME STEP   26
 
 SOLVING FOR HEAD 
                                                   Max.-Head-Change                         Max.-Flux-Residual
  Residual-Control   Outer-Iter.   Inner-Iter.     Column Row Layer    Maximum-Head-Change  Column Row Layer    Maximum-Flux-Residual          L2-NORM 
          0                 1           2             4    7     1       0.1422879108E+00       4    7    1         0.7481833977E+01      0.1494012284E+02
          0                 2           2             4    8     1       0.2968871550E-01       4    8    1         0.1626034908E+01      0.2427254384E+01
          0                 3           2             4    8     1       0.7977015212E-02       4    8    1         0.4316834303E+00      0.5715099250E+00
          0                 4           2             4    8     1       0.2143361384E-02       4    8    1         0.1163142093E+00      0.1514104637E+00
          0                 5           2             4    8     1       0.5759090976E-03       4    8    1         0.3123940079E-01      0.4038756657E-01
          0                 6           2             4    8     1       0.1547447705E-03       4    8    1         0.8393967862E-02      0.1078464676E-01
          0                 7           1             4    8     1       0.4157971365E-04       4    8    1         0.2255420370E-02      0.2881028254E-02

    ------------------------------------------------
       NWT REQUIRED            7 OUTER ITERATIONS 
       AND A TOTAL OF         13 INNER ITERATIONS.
    ------------------------------------------------

 NO OUTPUT CONTROL FOR STRESS PERIOD   34   TIME STEP   27
 
 SOLVING FOR HEAD 
                                                   Max.-Head-Change                         Max.-Flux-Residual
  Residual-Control   Outer-Iter.   Inner-Iter.     Column Row Layer    Maximum-Head-Change  Column Row Layer    Maximum-Flux-Residual          L2-NORM 
          0                 1           2             4    7     1       0.1414460953E+00       4    7    1         0.7441907997E+01      0.1465672457E+02
          0                 2           2             5    7     1       0.2969622379E-01       5    7    1         0.1638870097E+01      0.1955273954E+01
          0                 3           2             5    7     1       0.7831079365E-02       5    7    1         0.4302988598E+00      0.4486832886E+00
          0                 4           2             5    7     1       0.2066217891E-02       5    7    1         0.1135759439E+00      0.1177822044E+00
          0                 5           2             5    7     1       0.5454638046E-03       5    7    1         0.2996802494E-01      0.3127536285E-01
          0                 6           2             5    7     1       0.1440763076E-03       5    7    1         0.7912615618E-02      0.8317709195E-02
          0                 7           1             5    7     1       0.3807652469E-04       5    7    1         0.2090310098E-02      0.2214438077E-02

    ------------------------------------------------
       NWT REQUIRED            7 OUTER ITERATIONS 
       AND A TOTAL OF         13 INNER ITERATIONS.
    ------------------------------------------------

 NO OUTPUT CONTROL FOR STRESS PERIOD   34   TIME STEP   28
 
 SOLVING FOR HEAD 
                                                   Max.-Head-Change                         Max.-Flux-Residual
  Residual-Control   Outer-Iter.   Inner-Iter.     Column Row Layer    Maximum-Head-Change  Column Row Layer    Maximum-Flux-Residual          L2-NORM 
          0                 1           2             4    7     1       0.1393589528E+00       4    7    1         0.7334440593E+01      0.1439156850E+02
          0                 2           2             4    7     1       0.3778433413E-01       4    7    1         0.2054110175E+01      0.2292433500E+01
          0                 3           2             4    7     1       0.4986541651E-02       4    7    1         0.2691272622E+00      0.3100216598E+00
          0                 4           2             4    6     1       0.7067873433E-03       4    6    1         0.3893132870E-01      0.4740545421E-01
          0                 5           2             4    6     1       0.1886021090E-03       4    6    1         0.1025579035E-01      0.1043083890E-01
          0                 6           1             4    6     1       0.5032750846E-04       4    6    1         0.2744722995E-02      0.2745675503E-02

    ------------------------------------------------
       NWT REQUIRED            6 OUTER ITERATIONS 
       AND A TOTAL OF         11 INNER ITERATIONS.
    ------------------------------------------------

 NO OUTPUT CONTROL FOR STRESS PERIOD   34   TIME STEP   29
 
 SOLVING FOR HEAD 
                                                   Max.-Head-Change                         Max.-Flux-Residual
  Residual-Control   Outer-Iter.   Inner-Iter.     Column Row Layer    Maximum-Head-Change  Column Row Layer    Maximum-Flux-Residual          L2-NORM 
          0                 1           2             4    7     1       0.1353916937E+00       4    7    1         0.7122333180E+01      0.1412697199E+02
          0                 2           2             4    6     1       0.3264006876E-01       4    6    1         0.1797431948E+01      0.2191644342E+01
          0                 3           2             4    6     1       0.8709656692E-02       4    6    1         0.4736424806E+00      0.4818349867E+00
          0                 4           2             4    6     1       0.3422518515E-03       4    6    1         0.1869519974E-01      0.1897877699E-01
          0                 5           1             4    6     1      -0.3327439141E-04       4    6    1        -0.1866402688E-02      0.1867615338E-02

    ------------------------------------------------
       NWT REQUIRED            5 OUTER ITERATIONS 
       AND A TOTAL OF          9 INNER ITERATIONS.
    ------------------------------------------------

 NO OUTPUT CONTROL FOR STRESS PERIOD   34   TIME STEP   30



 STREAM LISTING     PERIOD     34   STEP       30

 LAYER ROW COL. STREAM  RCH.  FLOW INTO     FLOW TO   FLOW OUT OF   OVRLND.     DIRECT     STREAM       STREAM     STREAM     STREAM   STREAMBED  STREAMBED
                SEG.NO.  NO.  STRM. RCH.    AQUIFER    STRM. RCH.    RUNOFF     PRECIP       ET          HEAD       DEPTH      WIDTH   CONDCTNC.   GRADIENT

   1    1    1     1     1    1.9000E+01  2.1427E-01   1.8786E+01  0.000E+00  0.000E+00  0.000E+00  1.09413E+03  1.082E+00  1.166E+01  5.249E-02  1.361E+00
   1    2    2     1     2    1.8786E+01  3.3054E-01   1.8455E+01  0.000E+00  0.000E+00  0.000E+00  1.08914E+03  1.077E+00  1.158E+01  8.107E-02  1.359E+00
   1    3    3     1     3    1.8455E+01  2.8064E-01   1.8175E+01  0.000E+00  0.000E+00  0.000E+00  1.08349E+03  1.072E+00  1.149E+01  6.892E-02  1.357E+00
   1    3    4     1     4    1.8175E+01  2.5740E-01   1.7917E+01  0.000E+00  0.000E+00  0.000E+00  1.07848E+03  1.068E+00  1.140E+01  6.328E-02  1.356E+00
   1    4    5     2     1    1.5917E+01  3.0542E-01   1.5612E+01  0.000E+00  0.000E+00  0.000E+00  1.07285E+03  9.157E-01  1.200E+01  7.800E-02  1.305E+00
   1    5    6     2     2    1.5612E+01  2.3438E-01   1.5377E+01  0.000E+00  0.000E+00  0.000E+00  1.06742E+03  9.063E-01  1.200E+01  6.000E-02  1.302E+00
   1    6    6     2     3    1.5377E+01  2.3388E-01   1.5143E+01  0.000E+00  0.000E+00  0.000E+00  1.06269E+03  8.980E-01  1.200E+01  6.000E-02  1.299E+00
   1    7    6     2     4    1.5143E+01  2.3338E-01   1.4910E+01  0.000E+00  0.000E+00  0.000E+00  1.05797E+03  8.897E-01  1.200E+01  6.000E-02  1.297E+00
   1    8    6     2     5    1.4910E+01  2.3289E-01   1.4677E+01  0.000E+00  0.000E+00  0.000E+00  1.05324E+03  8.814E-01  1.200E+01  6.000E-02  1.294E+00
   1    3    5     3     1    2.0000E+00  2.8252E-01   1.7175E+00  0.000E+00  0.000E+00  0.000E+00  1.07555E+03  1.909E+00  9.636E+00  7.227E-02  1.955E+00
   1    3    6     3     2    1.7175E+00  2.4905E-01   1.4684E+00  0.000E+00  0.000E+00  0.000E+00  1.07264E+03  1.727E+00  8.909E+00  6.682E-02  1.864E+00
   1    3    7     3     3    1.4684E+00  1.9718E-01   1.2712E+00  0.000E+00  0.000E+00  0.000E+00  1.06987E+03  1.555E+00  8.218E+00  5.547E-02  1.777E+00
   1    4    8     3     4    1.2712E+00  2.2567E-01   1.0456E+00  0.000E+00  0.000E+00  0.000E+00  1.06682E+03  1.364E+00  7.455E+00  6.709E-02  1.682E+00
   1    5    8     3     5    1.0456E+00  1.5790E-01   8.8768E-01  0.000E+00  0.000E+00  0.000E+00  1.06362E+03  1.164E+00  6.655E+00  4.991E-02  1.582E+00
   1    6    8     3     6    8.8768E-01  5.5980E-02   8.3170E-01  0.000E+00  0.000E+00  0.000E+00  1.06158E+03  1.036E+00  6.145E+00  1.844E-02  1.518E+00
   1    5   10     4     1    1.0000E+01  9.0919E-02   9.9091E+00  0.000E+00  0.000E+00  0.000E+00  1.07836E+03  6.368E-01  1.000E+01  2.500E-02  1.212E+00
   1    5    9     4     2    9.9091E+00  1.8158E-01   9.7275E+00  0.000E+00  0.000E+00  0.000E+00  1.07154E+03  6.315E-01  1.000E+01  5.000E-02  1.211E+00
   1    6    8     4     3    9.7275E+00  1.2689E-01   9.6006E+00  0.000E+00  0.000E+00  0.000E+00  1.06381E+03  6.256E-01  1.000E+01  3.500E-02  1.209E+00
   1    6    8     5     1    1.0432E+01  2.2686E-01   1.0205E+01  0.000E+00  0.000E+00  0.000E+00  1.05868E+03  6.790E-01  1.542E+01  6.166E-02  1.226E+00
   1    7    7     5     2    1.0205E+01  2.7894E-01   9.9265E+00  0.000E+00  0.000E+00  0.000E+00  1.05417E+03  6.732E-01  1.519E+01  7.594E-02  1.224E+00
   1    8    7     5     3    9.9265E+00  1.9221E-01   9.7343E+00  0.000E+00  0.000E+00  0.000E+00  1.04992E+03  6.676E-01  1.497E+01  5.241E-02  1.223E+00
   1    8    6     5     4    9.7343E+00  1.3577E-01   9.5985E+00  0.000E+00  0.000E+00  0.000E+00  1.04691E+03  6.637E-01  1.482E+01  3.706E-02  1.221E+00
   1    9    6     6     1    2.4276E+01  2.5176E-01   2.4024E+01  0.000E+00  0.000E+00  0.000E+00  1.04392E+03  1.196E+00  1.200E+01  6.000E-02  1.399E+00
   1   10    7     6     2    2.4024E+01  2.5131E-01   2.3773E+01  0.000E+00  0.000E+00  0.000E+00  1.03937E+03  1.188E+00  1.200E+01  6.000E-02  1.396E+00
   1   11    7     6     3    2.3773E+01  2.5086E-01   2.3522E+01  0.000E+00  0.000E+00  0.000E+00  1.03482E+03  1.181E+00  1.200E+01  6.000E-02  1.394E+00
   1   12    7     6     4    2.3522E+01  2.5041E-01   2.3271E+01  0.000E+00  0.000E+00  0.000E+00  1.03026E+03  1.173E+00  1.200E+01  6.000E-02  1.391E+00
   1   13    7     6     5    2.3271E+01  7.3253E-03   2.3264E+01  0.000E+00  0.000E+00  0.000E+00  1.02708E+03  1.170E+00  1.200E+01  2.400E-02  1.017E-01
   1   14    9     7     1    1.5000E+02  1.3544E+00   1.4865E+02  0.000E+00  0.000E+00  0.000E+00  1.03987E+03  2.288E+00  5.529E+01  5.593E-01  8.072E-01
   1   13    8     7     2    1.4865E+02  1.9212E+00   1.4672E+02  0.000E+00  0.000E+00  0.000E+00  1.03478E+03  2.279E+00  5.526E+01  6.148E-01  1.042E+00
   1   13    7     7     3    1.4672E+02  1.6280E+00   1.4510E+02  0.000E+00  0.000E+00  0.000E+00  1.02969E+03  2.269E+00  5.521E+01  5.584E-01  9.718E-01
   1   13    6     8     1    1.6836E+02  1.0669E+00   1.6729E+02  0.000E+00  0.000E+00  0.000E+00  1.02481E+03  2.938E+00  4.260E+01  4.341E-01  8.192E-01
   1   13    5     8     2    1.6729E+02  3.1160E-01   1.6698E+02  0.000E+00  0.000E+00  0.000E+00  1.01856E+03  2.933E+00  4.254E+01  4.334E-01  2.396E-01
   1   13    4     8     3    1.6698E+02 -1.9781E+00   1.6896E+02  0.000E+00  0.000E+00  0.000E+00  1.01231E+03  2.939E+00  4.261E+01  4.343E+00 -1.518E-01
   1   13    3     8     4    1.6896E+02 -3.4284E+00   1.7239E+02  0.000E+00  0.000E+00  0.000E+00  1.00608E+03  2.957E+00  4.287E+01  4.369E+00 -2.616E-01
   1   13    2     8     5    1.7239E+02 -2.5227E+00   1.7491E+02  0.000E+00  0.000E+00  0.000E+00  9.99851E+02  2.976E+00  4.315E+01  4.397E+00 -1.912E-01
   1   13    1     8     6    1.7491E+02 -1.9685E+00   1.7688E+02  0.000E+00  0.000E+00  0.000E+00  9.94865E+02  2.990E+00  4.336E+01  2.651E+00 -2.475E-01





UNSATURATED ZONE PACKAGE VOLUMETRIC BUDGET FOR  TIME STEP    30 STRESS PERIOD   34
  ------------------------------------------------------------------------------



     CUMULATIVE VOLUMES      L**3       RATES FOR THIS TIME STEP      L**3/T
     ------------------                 ------------------------

           IN:                                      IN:
           ---                                      ---
        INFILTRATION =  1502460859.6789          INFILTRATION =          12.0675

          OUT:                                     OUT:
          ----                                     ----
              UZF ET =  1285220849.3777                UZF ET =          12.0675
        UZF RECHARGE =   188606782.2677          UZF RECHARGE =          30.6912

            IN - OUT =    28633228.0335              IN - OUT =         -30.6912

          STORAGE:                                 STORAGE:
          --------                                 --------
      STORAGE CHANGE =    28633246.2206        STORAGE CHANGE =         -30.6912

 PERCENT DISCREPANCY IS DIFFERENCE BETWEEN IN-OUT MINUS CHANGE IN STORAGE
 DIVIDED BY THE AVERAGE OF IN AND OUT TIMES 100

 PERCENT DISCREPANCY =          -0.00     PERCENT DISCREPANCY =           0.00






1
  VOLUMETRIC BUDGET FOR AGRICULTURAL FIELDS AT  END OF TIME STEP   30, STRESS PERIOD  34
  ------------------------------------------------------------------------------

     CUMULATIVE VOLUMES      L**3       RATES FOR THIS TIME STEP      L**3/T
     ------------------                 ------------------------

           IN:                                      IN:
           ---                                      ---
               AG WELLS  =  1428831872.0000                 AG WELLS  =          11.2200
      DIVERSION SEGMENTS =           0.0000        DIVERSION SEGMENTS =           0.0000
           GW IRRIGATION =           0.0000             GW IRRIGATION =           0.0000
           SW IRRIGATION =           0.0000             SW IRRIGATION =           0.0000
        SYSTEM LOSSES GW =           0.0000          SYSTEM LOSSES GW =           0.0000
        SYSTEM LOSSES SW =           0.0000          SYSTEM LOSSES SW =           0.0000

                TOTAL IN =  1428831872.0000                  TOTAL IN =          11.2200

          OUT:                                     OUT:
          ----                                     ----
               AG WELLS  =           0.0000                 AG WELLS  =           0.0000
      DIVERSION SEGMENTS =           0.0000        DIVERSION SEGMENTS =           0.0000
           GW IRRIGATION =  1428831872.0000             GW IRRIGATION =          11.2200
           SW IRRIGATION =           0.0000             SW IRRIGATION =           0.0000
        SYSTEM LOSSES GW =           0.0000          SYSTEM LOSSES GW =           0.0000
        SYSTEM LOSSES SW =           0.0000          SYSTEM LOSSES SW =           0.0000

               TOTAL OUT =  1428831872.0000                 TOTAL OUT =          11.2200

                IN - OUT =           0.0000                  IN - OUT =           0.0000

     PERCENT DISCREPANCY =           0.00         PERCENT DISCREPANCY =           0.00



1
  VOLUMETRIC BUDGET FOR ENTIRE MODEL AT END OF TIME STEP   30, STRESS PERIOD  34
  ------------------------------------------------------------------------------

     CUMULATIVE VOLUMES      L**3       RATES FOR THIS TIME STEP      L**3/T
     ------------------                 ------------------------

           IN:                                      IN:
           ---                                      ---
             STORAGE     =  1757870592.0000               STORAGE     =          17.5436
       CONSTANT HEAD     =           0.0000         CONSTANT HEAD     =           0.0000
     HEAD DEP BOUNDS     =    24824186.0000       HEAD DEP BOUNDS     =           0.2870
      STREAM LEAKAGE     =  1066514752.0000        STREAM LEAKAGE     =          12.0180
        UZF RECHARGE     =   188606736.0000          UZF RECHARGE     =          30.6912
               GW ET     =           0.0000                 GW ET     =           0.0000
     SURFACE LEAKAGE     =           0.0000       SURFACE LEAKAGE     =           0.0000
           AG WELLS      =           0.0000             AG WELLS      =           0.0000

                TOTAL IN =  3037816320.0000                  TOTAL IN =          60.5399

          OUT:                                     OUT:
          ----                                     ----
             STORAGE     =   673331072.0000               STORAGE     =          39.1330
       CONSTANT HEAD     =           0.0000         CONSTANT HEAD     =           0.0000
     HEAD DEP BOUNDS     =    25431916.0000       HEAD DEP BOUNDS     =           0.2891
      STREAM LEAKAGE     =   892712896.0000        STREAM LEAKAGE     =           9.8977
        UZF RECHARGE     =           0.0000          UZF RECHARGE     =           0.0000
               GW ET     =    17516202.0000                 GW ET     =           0.0000
     SURFACE LEAKAGE     =           0.0000       SURFACE LEAKAGE     =           0.0000
           AG WELLS      =  1428831872.0000             AG WELLS      =          11.2200

               TOTAL OUT =  3037824000.0000                 TOTAL OUT =          60.5398

                IN - OUT =       -7680.0000                  IN - OUT =       1.3351E-04

     PERCENT DISCREPANCY =          -0.00         PERCENT DISCREPANCY =           0.00






         TIME SUMMARY AT END OF TIME STEP   30 IN STRESS PERIOD   34
                    SECONDS     MINUTES      HOURS       DAYS        YEARS
                    -----------------------------------------------------------
   TIME STEP LENGTH  87667.      1461.1      24.352      1.0147     2.77799E-03
 STRESS PERIOD TIME 2.63000E+06  43833.      730.56      30.440     8.33397E-02
         TOTAL TIME 8.68762E+07 1.44794E+06  24132.      1005.5      2.7529    
1
1
                            STRESS PERIOD NO.   35, LENGTH =   2630000.    
                            -----------------------------------------------

                              NUMBER OF TIME STEPS =    30

                               MULTIPLIER FOR DELT =     1.000

                            INITIAL TIME STEP SIZE =   87666.66    

 REUSING NON-PARAMETER GHB CELLS FROM LAST STRESS PERIOD

      2 GHB CELLS

 REUSING STREAM SEGMENT DATA FROM LAST STRESS PERIOD



            AREAL INFILTRATION RATE
 READING ON UNIT   19 WITH FORMAT: (FREE)              

            1           2           3           4           5           6           7           8           9          10
 ........................................................................................................................
   1   1.0000E-10  2.0000E-10   0.000       0.000       0.000       0.000       0.000       0.000       0.000       0.000    
   2   2.0000E-10  1.0000E-10  2.0000E-10   0.000       0.000      8.0000E-10  8.0000E-10  5.0000E-10   0.000       0.000    
   3    0.000      5.0000E-10  1.0000E-10  1.0000E-10  8.0000E-10  8.0000E-10  5.0000E-10  5.0000E-10   0.000       0.000    
   4   8.0000E-10  5.0000E-10  1.0000E-10  1.0000E-10  1.0000E-10  1.0000E-10  1.0000E-10  1.0000E-10  2.0000E-10   0.000    
   5   8.0000E-10  5.0000E-10  1.0000E-10  1.0000E-10  1.0000E-10  1.0000E-10  1.0000E-10  1.0000E-10  1.0000E-10  1.0000E-10
   6   8.0000E-10  5.0000E-10  5.0000E-10  2.0000E-10  2.0000E-10  1.0000E-10  1.0000E-10  1.0000E-10  1.0000E-10  5.0000E-10
   7   8.0000E-10  5.0000E-10  5.0000E-10  2.0000E-10  2.0000E-10  1.0000E-10  1.0000E-10  2.0000E-10  2.0000E-10   0.000    
   8    0.000      5.0000E-10  5.0000E-10  2.0000E-10  2.0000E-10  1.0000E-10  1.0000E-10  2.0000E-10  5.0000E-10   0.000    
   9    0.000      5.0000E-10  5.0000E-10  2.0000E-10  2.0000E-10  1.0000E-10  1.0000E-10  2.0000E-10  5.0000E-10   0.000    
  10    0.000      5.0000E-10  5.0000E-10  2.0000E-10  2.0000E-10  1.0000E-10  1.0000E-10  2.0000E-10  5.0000E-10  8.0000E-10
  11    0.000      1.0000E-10  1.0000E-10  1.0000E-10  1.0000E-10  1.0000E-10  1.0000E-10  2.0000E-10  5.0000E-10   0.000    
  12   1.0000E-10  1.0000E-10  1.0000E-10  1.0000E-10  1.0000E-10  1.0000E-10  1.0000E-10  1.0000E-10  2.0000E-10   0.000    
  13   1.0000E-10  1.0000E-10  2.0000E-10  2.0000E-10  2.0000E-10  2.0000E-10  2.0000E-10  1.0000E-10  1.0000E-10   0.000    
  14    0.000      2.0000E-10  5.0000E-10  5.0000E-10  5.0000E-10  5.0000E-10  5.0000E-10  2.0000E-10  1.0000E-10   0.000    
  15    0.000       0.000      8.0000E-10  8.0000E-10  8.0000E-10  8.0000E-10   0.000       0.000       0.000       0.000    

                  ET RATE =  5.000000E-09

 USING ET EXTINCTION DEPTH FROM PREVIOUS STRESS PERIOD. CURRENT PERIOD IS:      35

 USING EXTINCTION WATER CONTENT FROM PREVIOUS STRESS PERIOD. CURRENT PERIOD IS:      35

 USING AIR ENTRY PRESSURE FROM PREVIOUS STRESS PERIOD. CURRENT PERIOD IS:      35

 USING ROOT PRESSURE HEAD FROM PREVIOUS STRESS PERIOD. CURRENT PERIOD IS:      35

 USING ROOT ACTIVITY FROM PREVIOUS STRESS PERIOD. CURRENT PERIOD IS:      35

 PROCESSING AG STRESS PERIOD DATA

 READING AG STRESS PERIOD DATA

 READING IRRIGATION WELL

 END PROCESSING AG STRESS PERIOD DATA OPTIONS
 
 SOLVING FOR HEAD 
                                                   Max.-Head-Change                         Max.-Flux-Residual
  Residual-Control   Outer-Iter.   Inner-Iter.     Column Row Layer    Maximum-Head-Change  Column Row Layer    Maximum-Flux-Residual          L2-NORM 
          0                 1           2             4    7     1       0.1702681085E+00       4    7    1         0.8946816459E+01      0.1832141866E+02
          0                 2           2             4    7     1      -0.1655390584E-01       4    7    1        -0.8942265206E+00      0.1831200333E+01
          0                 3           2             4    7     1       0.1126405042E-02       4    7    1         0.6254838538E-01      0.1280901816E+00
          0                 4           1             4    7     1      -0.4476445088E-04       4    7    1        -0.2555021477E-02      0.5232524495E-02

    ------------------------------------------------
       NWT REQUIRED            4 OUTER ITERATIONS 
       AND A TOTAL OF          7 INNER ITERATIONS.
    ------------------------------------------------

 NO OUTPUT CONTROL FOR STRESS PERIOD   35   TIME STEP    1
 
 SOLVING FOR HEAD 
                                                   Max.-Head-Change                         Max.-Flux-Residual
  Residual-Control   Outer-Iter.   Inner-Iter.     Column Row Layer    Maximum-Head-Change  Column Row Layer    Maximum-Flux-Residual          L2-NORM 
          0                 1           2             4    7     1       0.1682991534E+00       4    7    1         0.8846608486E+01      0.1717482646E+02
          0                 2           2             4    7     1      -0.1615986650E-01       4    7    1        -0.8842118372E+00      0.1574073614E+01
          0                 3           2             4    7     1       0.1114826583E-02       4    7    1         0.6191994423E-01      0.1204961565E+00
          0                 4           2             4    8     1       0.2568629046E-03       4    8    1         0.1397367336E-01      0.1466079887E-01
          0                 5           1             4    8     1       0.6900934750E-04       4    8    1         0.3743177346E-02      0.3743847687E-02

    ------------------------------------------------
       NWT REQUIRED            5 OUTER ITERATIONS 
       AND A TOTAL OF          9 INNER ITERATIONS.
    ------------------------------------------------

 NO OUTPUT CONTROL FOR STRESS PERIOD   35   TIME STEP    2
 
 SOLVING FOR HEAD 
                                                   Max.-Head-Change                         Max.-Flux-Residual
  Residual-Control   Outer-Iter.   Inner-Iter.     Column Row Layer    Maximum-Head-Change  Column Row Layer    Maximum-Flux-Residual          L2-NORM 
          0                 1           2             4    7     1       0.1665083067E+00       4    7    1         0.8756261883E+01      0.1686036042E+02
          0                 2           2             4    8     1       0.3556378675E-01       4    8    1         0.1914210906E+01      0.2661329944E+01
          0                 3           2             4    8     1       0.9678693568E-02       4    8    1         0.5200057218E+00      0.6882589989E+00
          0                 4           2             4    8     1       0.2634432120E-02       4    8    1         0.1415751260E+00      0.1876457623E+00
          0                 5           2             4    8     1       0.7171650531E-03       4    8    1         0.3853463984E-01      0.5128834003E-01
          0                 6           1             4    7     1       0.1534700552E-03       4    7    1         0.8313234471E-02      0.9314494330E-02
          0                 7           1             4    7     1       0.4135615289E-04       4    7    1         0.2238396060E-02      0.2518851639E-02

    ------------------------------------------------
       NWT REQUIRED            7 OUTER ITERATIONS 
       AND A TOTAL OF         12 INNER ITERATIONS.
    ------------------------------------------------

 NO OUTPUT CONTROL FOR STRESS PERIOD   35   TIME STEP    3
 
 SOLVING FOR HEAD 
                                                   Max.-Head-Change                         Max.-Flux-Residual
  Residual-Control   Outer-Iter.   Inner-Iter.     Column Row Layer    Maximum-Head-Change  Column Row Layer    Maximum-Flux-Residual          L2-NORM 
          0                 1           2             4    7     1       0.1630078831E+00       4    7    1         0.8572465796E+01      0.1649449214E+02
          0                 2           2             5    7     1       0.3513834077E-01       5    7    1         0.1907327977E+01      0.2754027327E+01
          0                 3           2             5    7     1       0.9393188421E-02       5    7    1         0.5122123730E+00      0.6997398248E+00
          0                 4           2             4    6     1       0.6731795838E-03       4    6    1         0.3611335958E-01      0.5708032114E-01
          0                 5           2             4    6     1       0.1796237917E-03       4    6    1         0.9849651052E-02      0.1061407503E-01
          0                 6           1             4    6     1       0.4792862992E-04       4    6    1         0.2609382932E-02      0.2622265031E-02

    ------------------------------------------------
       NWT REQUIRED            6 OUTER ITERATIONS 
       AND A TOTAL OF         11 INNER ITERATIONS.
    ------------------------------------------------

 NO OUTPUT CONTROL FOR STRESS PERIOD   35   TIME STEP    4
 
 SOLVING FOR HEAD 
                                                   Max.-Head-Change                         Max.-Flux-Residual
  Residual-Control   Outer-Iter.   Inner-Iter.     Column Row Layer    Maximum-Head-Change  Column Row Layer    Maximum-Flux-Residual          L2-NORM 
          0                 1           2             4    7     1       0.1610020918E+00       4    7    1         0.8471023683E+01      0.1614908358E+02
          0                 2           2             4    6     1       0.3796270827E-01       4    6    1         0.2092336143E+01      0.2533677345E+01
          0                 3           2             4    6     1       0.1929822739E-02       4    6    1         0.1036353082E+00      0.1446513262E+00
          0                 4           2             4    6     1      -0.1876196428E-03       4    6    1        -0.1045662658E-01      0.1120536760E-01
          0                 5           1             4    6     1       0.1276686156E-04       4    6    1         0.7353362739E-03      0.7366309275E-03

    ------------------------------------------------
       NWT REQUIRED            5 OUTER ITERATIONS 
       AND A TOTAL OF          9 INNER ITERATIONS.
    ------------------------------------------------

 NO OUTPUT CONTROL FOR STRESS PERIOD   35   TIME STEP    5
 
 SOLVING FOR HEAD 
                                                   Max.-Head-Change                         Max.-Flux-Residual
  Residual-Control   Outer-Iter.   Inner-Iter.     Column Row Layer    Maximum-Head-Change  Column Row Layer    Maximum-Flux-Residual          L2-NORM 
          0                 1           2             4    7     1       0.1596912358E+00       4    7    1         0.8407394403E+01      0.1586261375E+02
          0                 2           2             4    7     1      -0.1552566917E-01       4    7    1        -0.8403162408E+00      0.1585466731E+01
          0                 3           2             4    7     1       0.1056440209E-02       4    7    1         0.5877757993E-01      0.1109024410E+00
          0                 4           1             4    7     1      -0.4198409642E-04       4    7    1        -0.2400994913E-02      0.4530472023E-02

    ------------------------------------------------
       NWT REQUIRED            4 OUTER ITERATIONS 
       AND A TOTAL OF          7 INNER ITERATIONS.
    ------------------------------------------------

 NO OUTPUT CONTROL FOR STRESS PERIOD   35   TIME STEP    6
 
 SOLVING FOR HEAD 
                                                   Max.-Head-Change                         Max.-Flux-Residual
  Residual-Control   Outer-Iter.   Inner-Iter.     Column Row Layer    Maximum-Head-Change  Column Row Layer    Maximum-Flux-Residual          L2-NORM 
          0                 1           2             4    7     1       0.1575682746E+00       4    7    1         0.8297101102E+01      0.1561400168E+02
          0                 2           2             4    6     1      -0.1282941372E-01       4    6    1        -0.7110026891E+00      0.1331620518E+01
          0                 3           2             4    6     1       0.8847169031E-03       4    6    1         0.4978827828E-01      0.9834589930E-01
          0                 4           1             4    7     1       0.1729438758E-03       4    7    1         0.9491270847E-02      0.1020085569E-01
          0                 5           1             4    7     1       0.4626522115E-04       4    7    1         0.2516590529E-02      0.2517433698E-02

    ------------------------------------------------
       NWT REQUIRED            5 OUTER ITERATIONS 
       AND A TOTAL OF          8 INNER ITERATIONS.
    ------------------------------------------------

 NO OUTPUT CONTROL FOR STRESS PERIOD   35   TIME STEP    7
 
 SOLVING FOR HEAD 
                                                   Max.-Head-Change                         Max.-Flux-Residual
  Residual-Control   Outer-Iter.   Inner-Iter.     Column Row Layer    Maximum-Head-Change  Column Row Layer    Maximum-Flux-Residual          L2-NORM 
          0                 1           2             4    7     1       0.1545821814E+00       4    7    1         0.8138990681E+01      0.1536708122E+02
          0                 2           2             4    7     1       0.4161812242E-01       4    7    1         0.2278154744E+01      0.2612993865E+01
          0                 3           2             4    7     1       0.3998590432E-02       4    7    1         0.2142443863E+00      0.2794667238E+00
          0                 4           2             4    8     1       0.8057522989E-03       4    8    1         0.4399252867E-01      0.4906356481E-01
          0                 5           2             4    8     1       0.2164665175E-03       4    8    1         0.1172536223E-01      0.1182417882E-01
          0                 6           1             4    8     1       0.5815413417E-04       4    8    1         0.3155864450E-02      0.3156343477E-02

    ------------------------------------------------
       NWT REQUIRED            6 OUTER ITERATIONS 
       AND A TOTAL OF         11 INNER ITERATIONS.
    ------------------------------------------------

 NO OUTPUT CONTROL FOR STRESS PERIOD   35   TIME STEP    8
 
 SOLVING FOR HEAD 
                                                   Max.-Head-Change                         Max.-Flux-Residual
  Residual-Control   Outer-Iter.   Inner-Iter.     Column Row Layer    Maximum-Head-Change  Column Row Layer    Maximum-Flux-Residual          L2-NORM 
          0                 1           2             4    7     1       0.1495830595E+00       4    7    1         0.7888590640E+01      0.1457951486E+02
          0                 2           2             4    7     1      -0.1406333387E-01       4    7    1        -0.7884628819E+00      0.1342154206E+01
          0                 3           2             5    7     1       0.3182974334E-02       5    7    1         0.1740620647E+00      0.2045256437E+00
          0                 4           2             5    7     1       0.8339427550E-03       5    7    1         0.4614732054E-01      0.5051530013E-01
          0                 5           2             5    7     1       0.2184883441E-03       5    7    1         0.1206967226E-01      0.1340809808E-01
          0                 6           1             5    7     1       0.5724126213E-04       5    7    1         0.3162421961E-02      0.3577334038E-02

    ------------------------------------------------
       NWT REQUIRED            6 OUTER ITERATIONS 
       AND A TOTAL OF         11 INNER ITERATIONS.
    ------------------------------------------------

 NO OUTPUT CONTROL FOR STRESS PERIOD   35   TIME STEP    9
 
 SOLVING FOR HEAD 
                                                   Max.-Head-Change                         Max.-Flux-Residual
  Residual-Control   Outer-Iter.   Inner-Iter.     Column Row Layer    Maximum-Head-Change  Column Row Layer    Maximum-Flux-Residual          L2-NORM 
          0                 1           2             4    7     1       0.1466917617E+00       4    7    1         0.7800732672E+01      0.1307753225E+02
          0                 2           2             4    6     1       0.3476071200E-01       4    6    1         0.1888365419E+01      0.2485218525E+01
          0                 3           2             4    6     1       0.9409092861E-02       4    6    1         0.5068263333E+00      0.6169382636E+00
          0                 4           2             4    6     1       0.2546915850E-02       4    6    1         0.1374604930E+00      0.1663227964E+00
          0                 5           2             4    6     1       0.6894244051E-03       4    6    1         0.3719768965E-01      0.4501573716E-01
          0                 6           2             4    6     1       0.1866223597E-03       4    6    1         0.1006954257E-01      0.1218876002E-01
          0                 7           1             4    6     1       0.5051790849E-04       4    6    1         0.2725742620E-02      0.3300172619E-02

    ------------------------------------------------
       NWT REQUIRED            7 OUTER ITERATIONS 
       AND A TOTAL OF         13 INNER ITERATIONS.
    ------------------------------------------------

 NO OUTPUT CONTROL FOR STRESS PERIOD   35   TIME STEP   10
 
 SOLVING FOR HEAD 
                                                   Max.-Head-Change                         Max.-Flux-Residual
  Residual-Control   Outer-Iter.   Inner-Iter.     Column Row Layer    Maximum-Head-Change  Column Row Layer    Maximum-Flux-Residual          L2-NORM 
          0                 1           2             4    7     1       0.1434152113E+00       4    7    1         0.7669916144E+01      0.1213228849E+02
          0                 2           2             5    6     1       0.2546835384E-01       5    6    1         0.1409133320E+01      0.1667286748E+01
          0                 3           2             5    6     1       0.9658225719E-03       4    7    1         0.5425436520E-01      0.8216656324E-01
          0                 4           1             5    6     1      -0.9389960747E-04       5    6    1        -0.5319625753E-02      0.5912597390E-02

    ------------------------------------------------
       NWT REQUIRED            4 OUTER ITERATIONS 
       AND A TOTAL OF          7 INNER ITERATIONS.
    ------------------------------------------------

 NO OUTPUT CONTROL FOR STRESS PERIOD   35   TIME STEP   11
 
 SOLVING FOR HEAD 
                                                   Max.-Head-Change                         Max.-Flux-Residual
  Residual-Control   Outer-Iter.   Inner-Iter.     Column Row Layer    Maximum-Head-Change  Column Row Layer    Maximum-Flux-Residual          L2-NORM 
          0                 1           2             4    7     1       0.1392919446E+00       4    7    1         0.7455082317E+01      0.1079736427E+02
          0                 2           2             4    6     1      -0.1136377692E-01       4    6    1        -0.6419974291E+00      0.9422896671E+00
          0                 3           2             4    7     1       0.2515111547E-02       4    7    1         0.1361400563E+00      0.1467876162E+00
          0                 4           1             4    7     1       0.6712772829E-03       4    7    1         0.3663199012E-01      0.3669246774E-01
          0                 5           1             4    7     1       0.1791620818E-03       4    7    1         0.9765351095E-02      0.9765809313E-02
          0                 6           1             4    7     1       0.4781788500E-04       4    7    1         0.2606533352E-02      0.2606611335E-02

    ------------------------------------------------
       NWT REQUIRED            6 OUTER ITERATIONS 
       AND A TOTAL OF          9 INNER ITERATIONS.
    ------------------------------------------------

 NO OUTPUT CONTROL FOR STRESS PERIOD   35   TIME STEP   12
 
 SOLVING FOR HEAD 
                                                   Max.-Head-Change                         Max.-Flux-Residual
  Residual-Control   Outer-Iter.   Inner-Iter.     Column Row Layer    Maximum-Head-Change  Column Row Layer    Maximum-Flux-Residual          L2-NORM 
          0                 1           2             4    7     1       0.1339917163E+00       4    7    1         0.7165396014E+01      0.1051204892E+02
          0                 2           2             4    7     1       0.3576086006E-01       4    7    1         0.1963633013E+01      0.2108774829E+01
          0                 3           2             4    7     1       0.3358723925E-02       4    7    1         0.1821011948E+00      0.1901787882E+00
          0                 4           1             4    7     1      -0.3265407938E-03       4    7    1        -0.1826782455E-01      0.1838296845E-01
          0                 5           1             4    7     1       0.2222001166E-04       4    7    1         0.1280481331E-02      0.1280677152E-02

    ------------------------------------------------
       NWT REQUIRED            5 OUTER ITERATIONS 
       AND A TOTAL OF          8 INNER ITERATIONS.
    ------------------------------------------------

 NO OUTPUT CONTROL FOR STRESS PERIOD   35   TIME STEP   13
 
 SOLVING FOR HEAD 
                                                   Max.-Head-Change                         Max.-Flux-Residual
  Residual-Control   Outer-Iter.   Inner-Iter.     Column Row Layer    Maximum-Head-Change  Column Row Layer    Maximum-Flux-Residual          L2-NORM 
          0                 1           2             4    6     1       0.1135262837E+00       4    6    1         0.6129739958E+01      0.7930190708E+01
          0                 2           2             4    6     1      -0.1103758611E-01       4    6    1        -0.6126773918E+00      0.7926811351E+00
          0                 3           2             4    6     1       0.7510646665E-03       4    6    1         0.4285570104E-01      0.5545314723E-01
          0                 4           1             4    6     1      -0.2984917647E-04       4    6    1        -0.1750659842E-02      0.2265696901E-02

    ------------------------------------------------
       NWT REQUIRED            4 OUTER ITERATIONS 
       AND A TOTAL OF          7 INNER ITERATIONS.
    ------------------------------------------------

 NO OUTPUT CONTROL FOR STRESS PERIOD   35   TIME STEP   14
 
 SOLVING FOR HEAD 
                                                   Max.-Head-Change                         Max.-Flux-Residual
  Residual-Control   Outer-Iter.   Inner-Iter.     Column Row Layer    Maximum-Head-Change  Column Row Layer    Maximum-Flux-Residual          L2-NORM 
          0                 1           2             4    6     1       0.1093357907E+00       4    6    1         0.5898572990E+01      0.7738453203E+01
          0                 2           2             4    7     1      -0.4185565064E-02       4    6    1        -0.2263290744E+00      0.5495068709E+00
          0                 3           2             4    6     1      -0.1190484054E-02       4    6    1        -0.6718796372E-01      0.7577404647E-01
          0                 4           2             4    6     1      -0.3414184423E-03       4    6    1        -0.1912094326E-01      0.1917632937E-01
          0                 5           1             4    6     1      -0.9791306494E-04       4    6    1        -0.5488631914E-02      0.5488687449E-02

    ------------------------------------------------
       NWT REQUIRED            5 OUTER ITERATIONS 
       AND A TOTAL OF          9 INNER ITERATIONS.
    ------------------------------------------------

 NO OUTPUT CONTROL FOR STRESS PERIOD   35   TIME STEP   15
 
 SOLVING FOR HEAD 
                                                   Max.-Head-Change                         Max.-Flux-Residual
  Residual-Control   Outer-Iter.   Inner-Iter.     Column Row Layer    Maximum-Head-Change  Column Row Layer    Maximum-Flux-Residual          L2-NORM 
          0                 1           2             4    6     1       0.1051733875E+00       4    6    1         0.5669079319E+01      0.7553889382E+01
          0                 2           2             4    6     1       0.2805938897E-01       4    6    1         0.1536836205E+01      0.1615834595E+01
          0                 3           2             4    6     1       0.7486040598E-02       4    6    1         0.4077506117E+00      0.4092950236E+00
          0                 4           2             4    6     1       0.1997226271E-02       4    6    1         0.1089214204E+00      0.1089285274E+00
          0                 5           2             4    6     1       0.5328469777E-03       4    6    1         0.2905396669E-01      0.2905448048E-01
          0                 6           2             4    6     1       0.1421601301E-03       4    6    1         0.7751638569E-02      0.7751727093E-02
          0                 7           1             4    6     1       0.3792740536E-04       4    6    1         0.2068077923E-02      0.2068103286E-02

    ------------------------------------------------
       NWT REQUIRED            7 OUTER ITERATIONS 
       AND A TOTAL OF         13 INNER ITERATIONS.
    ------------------------------------------------

 NO OUTPUT CONTROL FOR STRESS PERIOD   35   TIME STEP   16
 
 SOLVING FOR HEAD 
                                                   Max.-Head-Change                         Max.-Flux-Residual
  Residual-Control   Outer-Iter.   Inner-Iter.     Column Row Layer    Maximum-Head-Change  Column Row Layer    Maximum-Flux-Residual          L2-NORM 
          0                 1           2             4    6     1       0.9901011276E-01       4    6    1         0.5329093715E+01      0.7315213796E+01
          0                 2           2             4    6     1       0.1708030639E-01       4    6    1         0.9385031454E+00      0.1063835118E+01
          0                 3           2             4    6     1      -0.1660592740E-02       4    6    1        -0.9361010842E-01      0.1000924820E+00
          0                 4           2             4    6     1       0.1129982128E-03       4    6    1         0.6534926843E-02      0.6701990114E-02
          0                 5           1             4    6     1      -0.4490875331E-05       4    6    1        -0.2664396084E-03      0.2673362877E-03

    ------------------------------------------------
       NWT REQUIRED            5 OUTER ITERATIONS 
       AND A TOTAL OF          9 INNER ITERATIONS.
    ------------------------------------------------

 NO OUTPUT CONTROL FOR STRESS PERIOD   35   TIME STEP   17
 
 SOLVING FOR HEAD 
                                                   Max.-Head-Change                         Max.-Flux-Residual
  Residual-Control   Outer-Iter.   Inner-Iter.     Column Row Layer    Maximum-Head-Change  Column Row Layer    Maximum-Flux-Residual          L2-NORM 
          0                 1           2             4    7     1       0.4478784728E-01       4    7    1         0.2380641448E+01      0.5035677412E+01
          0                 2           2             4    7     1      -0.4354349752E-02       4    7    1        -0.2379398478E+00      0.5033998665E+00
          0                 3           2             4    7     1       0.2962936358E-03       4    7    1         0.1664334589E-01      0.3522155280E-01
          0                 4           1             4    7     1      -0.1177517625E-04       4    7    1        -0.6798689501E-03      0.1439448044E-02

    ------------------------------------------------
       NWT REQUIRED            4 OUTER ITERATIONS 
       AND A TOTAL OF          7 INNER ITERATIONS.
    ------------------------------------------------

 NO OUTPUT CONTROL FOR STRESS PERIOD   35   TIME STEP   18
 
 SOLVING FOR HEAD 
                                                   Max.-Head-Change                         Max.-Flux-Residual
  Residual-Control   Outer-Iter.   Inner-Iter.     Column Row Layer    Maximum-Head-Change  Column Row Layer    Maximum-Flux-Residual          L2-NORM 
          0                 1           2             4    7     1       0.4381226735E-01       4    7    1         0.2327065569E+01      0.4957563140E+01
          0                 2           2             4    7     1      -0.4259499481E-02       4    7    1        -0.2325848789E+00      0.4955899451E+00
          0                 3           2             4    7     1       0.2898393753E-03       4    7    1         0.1626876997E-01      0.3467500362E-01
          0                 4           1             4    7     1      -0.1151866390E-04       4    7    1        -0.6645671590E-03      0.1417098359E-02

    ------------------------------------------------
       NWT REQUIRED            4 OUTER ITERATIONS 
       AND A TOTAL OF          7 INNER ITERATIONS.
    ------------------------------------------------

 NO OUTPUT CONTROL FOR STRESS PERIOD   35   TIME STEP   19
 
 SOLVING FOR HEAD 
                                                   Max.-Head-Change                         Max.-Flux-Residual
  Residual-Control   Outer-Iter.   Inner-Iter.     Column Row Layer    Maximum-Head-Change  Column Row Layer    Maximum-Flux-Residual          L2-NORM 
          0                 1           2             4    7     1       0.4288824278E-01       4    7    1         0.2276381286E+01      0.4883246959E+01
          0                 2           2             4    7     1      -0.4169661717E-02       4    7    1        -0.2275189323E+00      0.4881597788E+00
          0                 3           2             4    7     1       0.2837262051E-03       4    7    1         0.1591441120E-01      0.3415504537E-01
          0                 4           1             4    7     1      -0.1127570839E-04       4    7    1        -0.6500913018E-03      0.1395844851E-02

    ------------------------------------------------
       NWT REQUIRED            4 OUTER ITERATIONS 
       AND A TOTAL OF          7 INNER ITERATIONS.
    ------------------------------------------------

 NO OUTPUT CONTROL FOR STRESS PERIOD   35   TIME STEP   20
 
 SOLVING FOR HEAD 
                                                   Max.-Head-Change                         Max.-Flux-Residual
  Residual-Control   Outer-Iter.   Inner-Iter.     Column Row Layer    Maximum-Head-Change  Column Row Layer    Maximum-Flux-Residual          L2-NORM 
          0                 1           2             4    7     1       0.4201175788E-01       4    7    1         0.2228362791E+01      0.4812370194E+01
          0                 2           2             4    7     1      -0.4084446040E-02       4    7    1        -0.2227194378E+00      0.4810735214E+00
          0                 3           2             4    7     1       0.2779275581E-03       4    7    1         0.1557869085E-01      0.3365914269E-01
          0                 4           1             4    7     1      -0.1104525287E-04       4    7    1        -0.6363768500E-03      0.1375570485E-02

    ------------------------------------------------
       NWT REQUIRED            4 OUTER ITERATIONS 
       AND A TOTAL OF          7 INNER ITERATIONS.
    ------------------------------------------------

 NO OUTPUT CONTROL FOR STRESS PERIOD   35   TIME STEP   21
 
 SOLVING FOR HEAD 
                                                   Max.-Head-Change                         Max.-Flux-Residual
  Residual-Control   Outer-Iter.   Inner-Iter.     Column Row Layer    Maximum-Head-Change  Column Row Layer    Maximum-Flux-Residual          L2-NORM 
          0                 1           2             4    7     1       0.4117965744E-01       4    7    1         0.2182830982E+01      0.4744642366E+01
          0                 2           2             4    7     1      -0.4003545679E-02       4    7    1        -0.2181684941E+00      0.4743021357E+00
          0                 3           2             4    7     1       0.2724225589E-03       4    7    1         0.1526035666E-01      0.3318529196E-01
          0                 4           1             4    7     1      -0.1082646841E-04       4    7    1        -0.6233726565E-03      0.1356204168E-02

    ------------------------------------------------
       NWT REQUIRED            4 OUTER ITERATIONS 
       AND A TOTAL OF          7 INNER ITERATIONS.
    ------------------------------------------------

 NO OUTPUT CONTROL FOR STRESS PERIOD   35   TIME STEP   22
 
 SOLVING FOR HEAD 
                                                   Max.-Head-Change                         Max.-Flux-Residual
  Residual-Control   Outer-Iter.   Inner-Iter.     Column Row Layer    Maximum-Head-Change  Column Row Layer    Maximum-Flux-Residual          L2-NORM 
          0                 1           2             4    7     1       0.4038864802E-01       4    7    1         0.2139600438E+01      0.4679778935E+01
          0                 2           2             4    7     1      -0.3926640429E-02       4    7    1        -0.2138475678E+00      0.4678171579E+00
          0                 3           2             4    7     1       0.2671894179E-03       4    7    1         0.1495811221E-01      0.3273148066E-01
          0                 4           1             4    7     1      -0.1061848844E-04       4    7    1        -0.6110257621E-03      0.1337652623E-02

    ------------------------------------------------
       NWT REQUIRED            4 OUTER ITERATIONS 
       AND A TOTAL OF          7 INNER ITERATIONS.
    ------------------------------------------------

 NO OUTPUT CONTROL FOR STRESS PERIOD   35   TIME STEP   23
 
 SOLVING FOR HEAD 
                                                   Max.-Head-Change                         Max.-Flux-Residual
  Residual-Control   Outer-Iter.   Inner-Iter.     Column Row Layer    Maximum-Head-Change  Column Row Layer    Maximum-Flux-Residual          L2-NORM 
          0                 1           2             4    7     1       0.3963556713E-01       4    7    1         0.2098493119E+01      0.4617535077E+01
          0                 2           2             4    7     1      -0.3853422817E-02       4    7    1        -0.2097388635E+00      0.4615941137E+00
          0                 3           2             4    7     1       0.2622072122E-03       4    7    1         0.1467071273E-01      0.3229599703E-01
          0                 4           1             4    7     1      -0.1042048175E-04       4    7    1        -0.5992853064E-03      0.1319851522E-02

    ------------------------------------------------
       NWT REQUIRED            4 OUTER ITERATIONS 
       AND A TOTAL OF          7 INNER ITERATIONS.
    ------------------------------------------------

 NO OUTPUT CONTROL FOR STRESS PERIOD   35   TIME STEP   24
 
 SOLVING FOR HEAD 
                                                   Max.-Head-Change                         Max.-Flux-Residual
  Residual-Control   Outer-Iter.   Inner-Iter.     Column Row Layer    Maximum-Head-Change  Column Row Layer    Maximum-Flux-Residual          L2-NORM 
          0                 1           2             4    7     1       0.3891803732E-01       4    7    1         0.2059374170E+01      0.4557691861E+01
          0                 2           2             4    7     1      -0.3783661691E-02       4    7    1        -0.2058289021E+00      0.4556138640E+00
          0                 3           2             4    7     1       0.2574602131E-03       4    7    1         0.1439721535E-01      0.3189538239E-01
          0                 4           1             4    7     1      -0.1023182342E-04       4    7    1        -0.5881127931E-03      0.1303266160E-02

    ------------------------------------------------
       NWT REQUIRED            4 OUTER ITERATIONS 
       AND A TOTAL OF          7 INNER ITERATIONS.
    ------------------------------------------------

 NO OUTPUT CONTROL FOR STRESS PERIOD   35   TIME STEP   25
 
 SOLVING FOR HEAD 
                                                   Max.-Head-Change                         Max.-Flux-Residual
  Residual-Control   Outer-Iter.   Inner-Iter.     Column Row Layer    Maximum-Head-Change  Column Row Layer    Maximum-Flux-Residual          L2-NORM 
          0                 1           2             4    7     1       0.3823321499E-01       4    7    1         0.2022083929E+01      0.4500059933E+01
          0                 2           2             4    7     1      -0.3717080581E-02       4    7    1        -0.2021017250E+00      0.4498492526E+00
          0                 3           2             4    7     1       0.2529296058E-03       4    7    1         0.1413650371E-01      0.3147412806E-01
          0                 4           1             4    7     1      -0.1005176500E-04       4    7    1        -0.5774625756E-03      0.1286252860E-02

    ------------------------------------------------
       NWT REQUIRED            4 OUTER ITERATIONS 
       AND A TOTAL OF          7 INNER ITERATIONS.
    ------------------------------------------------

 NO OUTPUT CONTROL FOR STRESS PERIOD   35   TIME STEP   26
 
 SOLVING FOR HEAD 
                                                   Max.-Head-Change                         Max.-Flux-Residual
  Residual-Control   Outer-Iter.   Inner-Iter.     Column Row Layer    Maximum-Head-Change  Column Row Layer    Maximum-Flux-Residual          L2-NORM 
          0                 1           2             4    7     1       0.3757913970E-01       4    7    1         0.1986511356E+01      0.4444456618E+01
          0                 2           2             4    7     1      -0.3653488881E-02       4    7    1        -0.1985462334E+00      0.4442902184E+00
          0                 3           2             4    7     1       0.2486024213E-03       4    7    1         0.1388780150E-01      0.3108511257E-01
          0                 4           1             4    7     1      -0.9879791189E-05       4    7    1        -0.5673029825E-03      0.1270350598E-02

    ------------------------------------------------
       NWT REQUIRED            4 OUTER ITERATIONS 
       AND A TOTAL OF          7 INNER ITERATIONS.
    ------------------------------------------------

 NO OUTPUT CONTROL FOR STRESS PERIOD   35   TIME STEP   27
 
 SOLVING FOR HEAD 
                                                   Max.-Head-Change                         Max.-Flux-Residual
  Residual-Control   Outer-Iter.   Inner-Iter.     Column Row Layer    Maximum-Head-Change  Column Row Layer    Maximum-Flux-Residual          L2-NORM 
          0                 1           2             4    7     1       0.3695348488E-01       4    7    1         0.1952525689E+01      0.4390726491E+01
          0                 2           2             4    7     1      -0.3592660388E-02       4    7    1        -0.1951493574E+00      0.4389184926E+00
          0                 3           2             4    7     1       0.2444632658E-03       4    7    1         0.1365019443E-01      0.3070922326E-01
          0                 4           1             4    7     1      -0.9715290312E-05       4    7    1        -0.5575966225E-03      0.1254984927E-02

    ------------------------------------------------
       NWT REQUIRED            4 OUTER ITERATIONS 
       AND A TOTAL OF          7 INNER ITERATIONS.
    ------------------------------------------------

 NO OUTPUT CONTROL FOR STRESS PERIOD   35   TIME STEP   28
 
 SOLVING FOR HEAD 
                                                   Max.-Head-Change                         Max.-Flux-Residual
  Residual-Control   Outer-Iter.   Inner-Iter.     Column Row Layer    Maximum-Head-Change  Column Row Layer    Maximum-Flux-Residual          L2-NORM 
          0                 1           2             4    7     1       0.3635423978E-01       4    7    1         0.1920013577E+01      0.4338731339E+01
          0                 2           2             4    7     1      -0.3534399604E-02       4    7    1        -0.1918997671E+00      0.4337202739E+00
          0                 3           2             4    7     1       0.2404988375E-03       4    7    1         0.1342289000E-01      0.3034548298E-01
          0                 4           1             4    7     1      -0.9557734506E-05       4    7    1        -0.5483111802E-03      0.1240115947E-02

    ------------------------------------------------
       NWT REQUIRED            4 OUTER ITERATIONS 
       AND A TOTAL OF          7 INNER ITERATIONS.
    ------------------------------------------------

 NO OUTPUT CONTROL FOR STRESS PERIOD   35   TIME STEP   29
 
 SOLVING FOR HEAD 
                                                   Max.-Head-Change                         Max.-Flux-Residual
  Residual-Control   Outer-Iter.   Inner-Iter.     Column Row Layer    Maximum-Head-Change  Column Row Layer    Maximum-Flux-Residual          L2-NORM 
          0                 1           2             4    7     1       0.3577968577E-01       4    7    1         0.1888878046E+01      0.4288348506E+01
          0                 2           2             4    7     1      -0.3478539433E-02       4    7    1        -0.1887877698E+00      0.4286832672E+00
          0                 3           2             4    7     1       0.2366977646E-03       4    7    1         0.1320521019E-01      0.2999301467E-01
          0                 4           1             4    7     1      -0.9406670516E-05       4    7    1        -0.5394188940E-03      0.1225711939E-02

    ------------------------------------------------
       NWT REQUIRED            4 OUTER ITERATIONS 
       AND A TOTAL OF          7 INNER ITERATIONS.
    ------------------------------------------------

 NO OUTPUT CONTROL FOR STRESS PERIOD   35   TIME STEP   30



 STREAM LISTING     PERIOD     35   STEP       30

 LAYER ROW COL. STREAM  RCH.  FLOW INTO     FLOW TO   FLOW OUT OF   OVRLND.     DIRECT     STREAM       STREAM     STREAM     STREAM   STREAMBED  STREAMBED
                SEG.NO.  NO.  STRM. RCH.    AQUIFER    STRM. RCH.    RUNOFF     PRECIP       ET          HEAD       DEPTH      WIDTH   CONDCTNC.   GRADIENT

   1    1    1     1     1    1.9000E+01  2.1427E-01   1.8786E+01  0.000E+00  0.000E+00  0.000E+00  1.09413E+03  1.082E+00  1.166E+01  5.249E-02  1.361E+00
   1    2    2     1     2    1.8786E+01  3.3054E-01   1.8455E+01  0.000E+00  0.000E+00  0.000E+00  1.08914E+03  1.077E+00  1.158E+01  8.107E-02  1.359E+00
   1    3    3     1     3    1.8455E+01  2.8064E-01   1.8175E+01  0.000E+00  0.000E+00  0.000E+00  1.08349E+03  1.072E+00  1.149E+01  6.892E-02  1.357E+00
   1    3    4     1     4    1.8175E+01  2.5740E-01   1.7917E+01  0.000E+00  0.000E+00  0.000E+00  1.07848E+03  1.068E+00  1.140E+01  6.328E-02  1.356E+00
   1    4    5     2     1    1.5917E+01  3.0542E-01   1.5612E+01  0.000E+00  0.000E+00  0.000E+00  1.07285E+03  9.157E-01  1.200E+01  7.800E-02  1.305E+00
   1    5    6     2     2    1.5612E+01  2.3438E-01   1.5377E+01  0.000E+00  0.000E+00  0.000E+00  1.06742E+03  9.063E-01  1.200E+01  6.000E-02  1.302E+00
   1    6    6     2     3    1.5377E+01  2.3388E-01   1.5143E+01  0.000E+00  0.000E+00  0.000E+00  1.06269E+03  8.980E-01  1.200E+01  6.000E-02  1.299E+00
   1    7    6     2     4    1.5143E+01  2.3338E-01   1.4910E+01  0.000E+00  0.000E+00  0.000E+00  1.05797E+03  8.897E-01  1.200E+01  6.000E-02  1.297E+00
   1    8    6     2     5    1.4910E+01  2.3289E-01   1.4677E+01  0.000E+00  0.000E+00  0.000E+00  1.05324E+03  8.814E-01  1.200E+01  6.000E-02  1.294E+00
   1    3    5     3     1    2.0000E+00  2.8252E-01   1.7175E+00  0.000E+00  0.000E+00  0.000E+00  1.07555E+03  1.909E+00  9.636E+00  7.227E-02  1.955E+00
   1    3    6     3     2    1.7175E+00  2.4905E-01   1.4684E+00  0.000E+00  0.000E+00  0.000E+00  1.07264E+03  1.727E+00  8.909E+00  6.682E-02  1.864E+00
   1    3    7     3     3    1.4684E+00  1.9718E-01   1.2712E+00  0.000E+00  0.000E+00  0.000E+00  1.06987E+03  1.555E+00  8.218E+00  5.547E-02  1.777E+00
   1    4    8     3     4    1.2712E+00  2.2567E-01   1.0456E+00  0.000E+00  0.000E+00  0.000E+00  1.06682E+03  1.364E+00  7.455E+00  6.709E-02  1.682E+00
   1    5    8     3     5    1.0456E+00  1.5790E-01   8.8768E-01  0.000E+00  0.000E+00  0.000E+00  1.06362E+03  1.164E+00  6.655E+00  4.991E-02  1.582E+00
   1    6    8     3     6    8.8768E-01  5.5980E-02   8.3170E-01  0.000E+00  0.000E+00  0.000E+00  1.06158E+03  1.036E+00  6.145E+00  1.844E-02  1.518E+00
   1    5   10     4     1    1.0000E+01  9.0919E-02   9.9091E+00  0.000E+00  0.000E+00  0.000E+00  1.07836E+03  6.368E-01  1.000E+01  2.500E-02  1.212E+00
   1    5    9     4     2    9.9091E+00  1.8158E-01   9.7275E+00  0.000E+00  0.000E+00  0.000E+00  1.07154E+03  6.315E-01  1.000E+01  5.000E-02  1.211E+00
   1    6    8     4     3    9.7275E+00  1.2689E-01   9.6006E+00  0.000E+00  0.000E+00  0.000E+00  1.06381E+03  6.256E-01  1.000E+01  3.500E-02  1.209E+00
   1    6    8     5     1    1.0432E+01  2.2686E-01   1.0205E+01  0.000E+00  0.000E+00  0.000E+00  1.05868E+03  6.790E-01  1.542E+01  6.166E-02  1.226E+00
   1    7    7     5     2    1.0205E+01  2.7894E-01   9.9265E+00  0.000E+00  0.000E+00  0.000E+00  1.05417E+03  6.732E-01  1.519E+01  7.594E-02  1.224E+00
   1    8    7     5     3    9.9265E+00  1.9221E-01   9.7343E+00  0.000E+00  0.000E+00  0.000E+00  1.04992E+03  6.676E-01  1.497E+01  5.241E-02  1.223E+00
   1    8    6     5     4    9.7343E+00  1.3577E-01   9.5985E+00  0.000E+00  0.000E+00  0.000E+00  1.04691E+03  6.637E-01  1.482E+01  3.706E-02  1.221E+00
   1    9    6     6     1    2.4276E+01  2.5176E-01   2.4024E+01  0.000E+00  0.000E+00  0.000E+00  1.04392E+03  1.196E+00  1.200E+01  6.000E-02  1.399E+00
   1   10    7     6     2    2.4024E+01  2.5131E-01   2.3773E+01  0.000E+00  0.000E+00  0.000E+00  1.03937E+03  1.188E+00  1.200E+01  6.000E-02  1.396E+00
   1   11    7     6     3    2.3773E+01  2.5086E-01   2.3522E+01  0.000E+00  0.000E+00  0.000E+00  1.03482E+03  1.181E+00  1.200E+01  6.000E-02  1.394E+00
   1   12    7     6     4    2.3522E+01  2.5041E-01   2.3271E+01  0.000E+00  0.000E+00  0.000E+00  1.03026E+03  1.173E+00  1.200E+01  6.000E-02  1.391E+00
   1   13    7     6     5    2.3271E+01  7.6798E-03   2.3264E+01  0.000E+00  0.000E+00  0.000E+00  1.02708E+03  1.170E+00  1.200E+01  2.400E-02  1.067E-01
   1   14    9     7     1    1.5000E+02  1.3564E+00   1.4864E+02  0.000E+00  0.000E+00  0.000E+00  1.03987E+03  2.288E+00  5.529E+01  5.593E-01  8.084E-01
   1   13    8     7     2    1.4864E+02  1.9260E+00   1.4672E+02  0.000E+00  0.000E+00  0.000E+00  1.03478E+03  2.279E+00  5.526E+01  6.148E-01  1.044E+00
   1   13    7     7     3    1.4672E+02  1.6362E+00   1.4508E+02  0.000E+00  0.000E+00  0.000E+00  1.02969E+03  2.269E+00  5.521E+01  5.584E-01  9.767E-01
   1   13    6     8     1    1.6835E+02  1.0766E+00   1.6727E+02  0.000E+00  0.000E+00  0.000E+00  1.02481E+03  2.938E+00  4.260E+01  4.341E-01  8.267E-01
   1   13    5     8     2    1.6727E+02  3.2300E-01   1.6695E+02  0.000E+00  0.000E+00  0.000E+00  1.01856E+03  2.933E+00  4.253E+01  4.334E-01  2.484E-01
   1   13    4     8     3    1.6695E+02 -1.9326E+00   1.6888E+02  0.000E+00  0.000E+00  0.000E+00  1.01231E+03  2.939E+00  4.261E+01  4.342E+00 -1.484E-01
   1   13    3     8     4    1.6888E+02 -3.4114E+00   1.7229E+02  0.000E+00  0.000E+00  0.000E+00  1.00608E+03  2.956E+00  4.286E+01  4.368E+00 -2.603E-01
   1   13    2     8     5    1.7229E+02 -2.5197E+00   1.7481E+02  0.000E+00  0.000E+00  0.000E+00  9.99850E+02  2.975E+00  4.314E+01  4.396E+00 -1.911E-01
   1   13    1     8     6    1.7481E+02 -1.9678E+00   1.7678E+02  0.000E+00  0.000E+00  0.000E+00  9.94865E+02  2.990E+00  4.335E+01  2.650E+00 -2.475E-01





UNSATURATED ZONE PACKAGE VOLUMETRIC BUDGET FOR  TIME STEP    30 STRESS PERIOD   35
  ------------------------------------------------------------------------------



     CUMULATIVE VOLUMES      L**3       RATES FOR THIS TIME STEP      L**3/T
     ------------------                 ------------------------

           IN:                                      IN:
           ---                                      ---
        INFILTRATION =  1504689784.5516          INFILTRATION =           0.8475

          OUT:                                     OUT:
          ----                                     ----
              UZF ET =  1287449774.2504                UZF ET =           0.8475
        UZF RECHARGE =   217162787.1616          UZF RECHARGE =           0.0004

            IN - OUT =       77223.1396              IN - OUT =      -4.0598E-04

          STORAGE:                                 STORAGE:
          --------                                 --------
      STORAGE CHANGE =       77241.2957        STORAGE CHANGE =      -4.0598E-04

 PERCENT DISCREPANCY IS DIFFERENCE BETWEEN IN-OUT MINUS CHANGE IN STORAGE
 DIVIDED BY THE AVERAGE OF IN AND OUT TIMES 100

 PERCENT DISCREPANCY =           0.00     PERCENT DISCREPANCY =           0.00






1
  VOLUMETRIC BUDGET FOR AGRICULTURAL FIELDS AT  END OF TIME STEP   30, STRESS PERIOD  35
  ------------------------------------------------------------------------------

     CUMULATIVE VOLUMES      L**3       RATES FOR THIS TIME STEP      L**3/T
     ------------------                 ------------------------

           IN:                                      IN:
           ---                                      ---
               AG WELLS  =  1428831872.0000                 AG WELLS  =           0.0000
      DIVERSION SEGMENTS =           0.0000        DIVERSION SEGMENTS =           0.0000
           GW IRRIGATION =           0.0000             GW IRRIGATION =           0.0000
           SW IRRIGATION =           0.0000             SW IRRIGATION =           0.0000
        SYSTEM LOSSES GW =           0.0000          SYSTEM LOSSES GW =           0.0000
        SYSTEM LOSSES SW =           0.0000          SYSTEM LOSSES SW =           0.0000

                TOTAL IN =  1428831872.0000                  TOTAL IN =           0.0000

          OUT:                                     OUT:
          ----                                     ----
               AG WELLS  =           0.0000                 AG WELLS  =           0.0000
      DIVERSION SEGMENTS =           0.0000        DIVERSION SEGMENTS =           0.0000
           GW IRRIGATION =  1428831872.0000             GW IRRIGATION =           0.0000
           SW IRRIGATION =           0.0000             SW IRRIGATION =           0.0000
        SYSTEM LOSSES GW =           0.0000          SYSTEM LOSSES GW =           0.0000
        SYSTEM LOSSES SW =           0.0000          SYSTEM LOSSES SW =           0.0000

               TOTAL OUT =  1428831872.0000                 TOTAL OUT =           0.0000

                IN - OUT =           0.0000                  IN - OUT =           0.0000

     PERCENT DISCREPANCY =           0.00         PERCENT DISCREPANCY =           0.00



1
  VOLUMETRIC BUDGET FOR ENTIRE MODEL AT END OF TIME STEP   30, STRESS PERIOD  35
  ------------------------------------------------------------------------------

     CUMULATIVE VOLUMES      L**3       RATES FOR THIS TIME STEP      L**3/T
     ------------------                 ------------------------

           IN:                                      IN:
           ---                                      ---
             STORAGE     =  1794656000.0000               STORAGE     =          11.4829
       CONSTANT HEAD     =           0.0000         CONSTANT HEAD     =           0.0000
     HEAD DEP BOUNDS     =    25579244.0000       HEAD DEP BOUNDS     =           0.2872
      STREAM LEAKAGE     =  1098169728.0000        STREAM LEAKAGE     =          12.0545
        UZF RECHARGE     =   217162688.0000          UZF RECHARGE     =       4.0598E-04
               GW ET     =           0.0000                 GW ET     =           0.0000
     SURFACE LEAKAGE     =           0.0000       SURFACE LEAKAGE     =           0.0000
           AG WELLS      =           0.0000             AG WELLS      =           0.0000

                TOTAL IN =  3135567872.0000                  TOTAL IN =          23.8249

          OUT:                                     OUT:
          ----                                     ----
             STORAGE     =   744377024.0000               STORAGE     =          13.7045
       CONSTANT HEAD     =           0.0000         CONSTANT HEAD     =           0.0000
     HEAD DEP BOUNDS     =    26192198.0000       HEAD DEP BOUNDS     =           0.2891
      STREAM LEAKAGE     =   918657280.0000        STREAM LEAKAGE     =           9.8314
        UZF RECHARGE     =           0.0000          UZF RECHARGE     =           0.0000
               GW ET     =    17516202.0000                 GW ET     =           0.0000
     SURFACE LEAKAGE     =           0.0000       SURFACE LEAKAGE     =           0.0000
           AG WELLS      =  1428831872.0000             AG WELLS      =           0.0000

               TOTAL OUT =  3135574528.0000                 TOTAL OUT =          23.8249

                IN - OUT =       -6656.0000                  IN - OUT =       1.3351E-05

     PERCENT DISCREPANCY =          -0.00         PERCENT DISCREPANCY =           0.00






         TIME SUMMARY AT END OF TIME STEP   30 IN STRESS PERIOD   35
                    SECONDS     MINUTES      HOURS       DAYS        YEARS
                    -----------------------------------------------------------
   TIME STEP LENGTH  87667.      1461.1      24.352      1.0147     2.77799E-03
 STRESS PERIOD TIME 2.63000E+06  43833.      730.56      30.440     8.33397E-02
         TOTAL TIME 8.95061E+07 1.49177E+06  24863.      1036.0      2.8363    
1
1
                            STRESS PERIOD NO.   36, LENGTH =   2630000.    
                            -----------------------------------------------

                              NUMBER OF TIME STEPS =    30

                               MULTIPLIER FOR DELT =     1.000

                            INITIAL TIME STEP SIZE =   87666.66    

 REUSING NON-PARAMETER GHB CELLS FROM LAST STRESS PERIOD

      2 GHB CELLS

 REUSING STREAM SEGMENT DATA FROM LAST STRESS PERIOD



            AREAL INFILTRATION RATE
 READING ON UNIT   19 WITH FORMAT: (FREE)              

            1           2           3           4           5           6           7           8           9          10
 ........................................................................................................................
   1   1.0000E-10  2.0000E-10   0.000       0.000       0.000       0.000       0.000       0.000       0.000       0.000    
   2   2.0000E-10  1.0000E-10  2.0000E-10   0.000       0.000      8.0000E-10  8.0000E-10  5.0000E-10   0.000       0.000    
   3    0.000      5.0000E-10  1.0000E-10  1.0000E-10  8.0000E-10  8.0000E-10  5.0000E-10  5.0000E-10   0.000       0.000    
   4   8.0000E-10  5.0000E-10  1.0000E-10  1.0000E-10  1.0000E-10  1.0000E-10  1.0000E-10  1.0000E-10  2.0000E-10   0.000    
   5   8.0000E-10  5.0000E-10  1.0000E-10  1.0000E-10  1.0000E-10  1.0000E-10  1.0000E-10  1.0000E-10  1.0000E-10  1.0000E-10
   6   8.0000E-10  5.0000E-10  5.0000E-10  2.0000E-10  2.0000E-10  1.0000E-10  1.0000E-10  1.0000E-10  1.0000E-10  5.0000E-10
   7   8.0000E-10  5.0000E-10  5.0000E-10  2.0000E-10  2.0000E-10  1.0000E-10  1.0000E-10  2.0000E-10  2.0000E-10   0.000    
   8    0.000      5.0000E-10  5.0000E-10  2.0000E-10  2.0000E-10  1.0000E-10  1.0000E-10  2.0000E-10  5.0000E-10   0.000    
   9    0.000      5.0000E-10  5.0000E-10  2.0000E-10  2.0000E-10  1.0000E-10  1.0000E-10  2.0000E-10  5.0000E-10   0.000    
  10    0.000      5.0000E-10  5.0000E-10  2.0000E-10  2.0000E-10  1.0000E-10  1.0000E-10  2.0000E-10  5.0000E-10  8.0000E-10
  11    0.000      1.0000E-10  1.0000E-10  1.0000E-10  1.0000E-10  1.0000E-10  1.0000E-10  2.0000E-10  5.0000E-10   0.000    
  12   1.0000E-10  1.0000E-10  1.0000E-10  1.0000E-10  1.0000E-10  1.0000E-10  1.0000E-10  1.0000E-10  2.0000E-10   0.000    
  13   1.0000E-10  1.0000E-10  2.0000E-10  2.0000E-10  2.0000E-10  2.0000E-10  2.0000E-10  1.0000E-10  1.0000E-10   0.000    
  14    0.000      2.0000E-10  5.0000E-10  5.0000E-10  5.0000E-10  5.0000E-10  5.0000E-10  2.0000E-10  1.0000E-10   0.000    
  15    0.000       0.000      8.0000E-10  8.0000E-10  8.0000E-10  8.0000E-10   0.000       0.000       0.000       0.000    

                  ET RATE =  5.000000E-10

 USING ET EXTINCTION DEPTH FROM PREVIOUS STRESS PERIOD. CURRENT PERIOD IS:      36

 USING EXTINCTION WATER CONTENT FROM PREVIOUS STRESS PERIOD. CURRENT PERIOD IS:      36

 USING AIR ENTRY PRESSURE FROM PREVIOUS STRESS PERIOD. CURRENT PERIOD IS:      36

 USING ROOT PRESSURE HEAD FROM PREVIOUS STRESS PERIOD. CURRENT PERIOD IS:      36

 USING ROOT ACTIVITY FROM PREVIOUS STRESS PERIOD. CURRENT PERIOD IS:      36

 PROCESSING AG STRESS PERIOD DATA

 READING AG STRESS PERIOD DATA

 READING IRRIGATION WELL

 END PROCESSING AG STRESS PERIOD DATA OPTIONS
 
 SOLVING FOR HEAD 
                                                   Max.-Head-Change                         Max.-Flux-Residual
  Residual-Control   Outer-Iter.   Inner-Iter.     Column Row Layer    Maximum-Head-Change  Column Row Layer    Maximum-Flux-Residual          L2-NORM 
          0                 1           2             4    7     1       0.3522823983E-01       4    7    1         0.1859029991E+01      0.4239452162E+01
          0                 2           2             4    7     1      -0.3424925965E-02       4    7    1        -0.1858044590E+00      0.4237947751E+00
          0                 3           2             4    7     1       0.2330495744E-03       4    7    1         0.1299653199E-01      0.2965094101E-01
          0                 4           1             4    7     1      -0.9261683191E-05       4    7    1        -0.5308943637E-03      0.1211725796E-02

    ------------------------------------------------
       NWT REQUIRED            4 OUTER ITERATIONS 
       AND A TOTAL OF          7 INNER ITERATIONS.
    ------------------------------------------------

 NO OUTPUT CONTROL FOR STRESS PERIOD   36   TIME STEP    1
 
 SOLVING FOR HEAD 
                                                   Max.-Head-Change                         Max.-Flux-Residual
  Residual-Control   Outer-Iter.   Inner-Iter.     Column Row Layer    Maximum-Head-Change  Column Row Layer    Maximum-Flux-Residual          L2-NORM 
          0                 1           2             4    7     1       0.3469831537E-01       4    7    1         0.1830380052E+01      0.4191952289E+01
          0                 2           2             4    7     1      -0.3373404939E-02       4    7    1        -0.1829409030E+00      0.4190461748E+00
          0                 3           2             4    7     1       0.2295437689E-03       4    7    1         0.1279623059E-01      0.2931866997E-01
          0                 4           1             4    7     1      -0.9122354273E-05       4    7    1        -0.5227120087E-03      0.1198148026E-02

    ------------------------------------------------
       NWT REQUIRED            4 OUTER ITERATIONS 
       AND A TOTAL OF          7 INNER ITERATIONS.
    ------------------------------------------------

 NO OUTPUT CONTROL FOR STRESS PERIOD   36   TIME STEP    2
 
 SOLVING FOR HEAD 
                                                   Max.-Head-Change                         Max.-Flux-Residual
  Residual-Control   Outer-Iter.   Inner-Iter.     Column Row Layer    Maximum-Head-Change  Column Row Layer    Maximum-Flux-Residual          L2-NORM 
          0                 1           2             4    7     1       0.3418845304E-01       4    7    1         0.1802845966E+01      0.4145760928E+01
          0                 2           2             4    7     1      -0.3323834470E-02       4    7    1        -0.1801888794E+00      0.4144282953E+00
          0                 3           2             4    7     1       0.2261706938E-03       4    7    1         0.1260373088E-01      0.2899553816E-01
          0                 4           1             4    7     1      -0.8988300270E-05       4    7    1        -0.5148483622E-03      0.1184936799E-02

    ------------------------------------------------
       NWT REQUIRED            4 OUTER ITERATIONS 
       AND A TOTAL OF          7 INNER ITERATIONS.
    ------------------------------------------------

 NO OUTPUT CONTROL FOR STRESS PERIOD   36   TIME STEP    3
 
 SOLVING FOR HEAD 
                                                   Max.-Head-Change                         Max.-Flux-Residual
  Residual-Control   Outer-Iter.   Inner-Iter.     Column Row Layer    Maximum-Head-Change  Column Row Layer    Maximum-Flux-Residual          L2-NORM 
          0                 1           2             4    7     1       0.3369729776E-01       4    7    1         0.1776352068E+01      0.4100772198E+01
          0                 2           2             4    7     1      -0.3276082809E-02       4    7    1        -0.1775408252E+00      0.4099306844E+00
          0                 3           2             4    7     1       0.2229213844E-03       4    7    1         0.1241850382E-01      0.2868083391E-01
          0                 4           1             4    7     1      -0.8859165786E-05       4    7    1        -0.5072818367E-03      0.1172076691E-02

    ------------------------------------------------
       NWT REQUIRED            4 OUTER ITERATIONS 
       AND A TOTAL OF          7 INNER ITERATIONS.
    ------------------------------------------------

 NO OUTPUT CONTROL FOR STRESS PERIOD   36   TIME STEP    4
 
 SOLVING FOR HEAD 
                                                   Max.-Head-Change                         Max.-Flux-Residual
  Residual-Control   Outer-Iter.   Inner-Iter.     Column Row Layer    Maximum-Head-Change  Column Row Layer    Maximum-Flux-Residual          L2-NORM 
          0                 1           2             4    7     1       0.3322374258E-01       4    7    1         0.1750835384E+01      0.4056937259E+01
          0                 2           2             4    7     1      -0.3230042328E-02       4    7    1        -0.1749904459E+00      0.4055484332E+00
          0                 3           2             4    7     1       0.2197885157E-03       4    7    1         0.1224010907E-01      0.2837419984E-01
          0                 4           1             4    7     1      -0.8734658625E-05       4    7    1        -0.4999944031E-03      0.1159541599E-02

    ------------------------------------------------
       NWT REQUIRED            4 OUTER ITERATIONS 
       AND A TOTAL OF          7 INNER ITERATIONS.
    ------------------------------------------------

 NO OUTPUT CONTROL FOR STRESS PERIOD   36   TIME STEP    5
 
 SOLVING FOR HEAD 
                                                   Max.-Head-Change                         Max.-Flux-Residual
  Residual-Control   Outer-Iter.   Inner-Iter.     Column Row Layer    Maximum-Head-Change  Column Row Layer    Maximum-Flux-Residual          L2-NORM 
          0                 1           2             4    7     1       0.3276662970E-01       4    7    1         0.1726231236E+01      0.4014175038E+01
          0                 2           2             4    7     1      -0.3185600462E-02       4    7    1        -0.1725312768E+00      0.4012734622E+00
          0                 3           2             4    7     1       0.2167644289E-03       4    7    1         0.1206809444E-01      0.2807507301E-01
          0                 4           1             4    7     1      -0.8614475311E-05       4    7    1        -0.4929676343E-03      0.1147316140E-02

    ------------------------------------------------
       NWT REQUIRED            4 OUTER ITERATIONS 
       AND A TOTAL OF          7 INNER ITERATIONS.
    ------------------------------------------------

 NO OUTPUT CONTROL FOR STRESS PERIOD   36   TIME STEP    6
 
 SOLVING FOR HEAD 
                                                   Max.-Head-Change                         Max.-Flux-Residual
  Residual-Control   Outer-Iter.   Inner-Iter.     Column Row Layer    Maximum-Head-Change  Column Row Layer    Maximum-Flux-Residual          L2-NORM 
          0                 1           2             4    7     1       0.3232489659E-01       4    7    1         0.1702479594E+01      0.3972427570E+01
          0                 2           2             4    7     1      -0.3142653901E-02       4    7    1        -0.1701573176E+00      0.3970999471E+00
          0                 3           2             4    7     1       0.2138420930E-03       4    7    1         0.1190204021E-01      0.2778304720E-01
          0                 4           1             4    7     1      -0.8498335739E-05       4    7    1        -0.4861843413E-03      0.1135384796E-02

    ------------------------------------------------
       NWT REQUIRED            4 OUTER ITERATIONS 
       AND A TOTAL OF          7 INNER ITERATIONS.
    ------------------------------------------------

 NO OUTPUT CONTROL FOR STRESS PERIOD   36   TIME STEP    7
 
 SOLVING FOR HEAD 
                                                   Max.-Head-Change                         Max.-Flux-Residual
  Residual-Control   Outer-Iter.   Inner-Iter.     Column Row Layer    Maximum-Head-Change  Column Row Layer    Maximum-Flux-Residual          L2-NORM 
          0                 1           2             4    7     1       0.3189768955E-01       4    7    1         0.1679532653E+01      0.3931641142E+01
          0                 2           2             4    7     1      -0.3101119646E-02       4    7    1        -0.1678637901E+00      0.3930225312E+00
          0                 3           2             4    7     1       0.2110158607E-03       4    7    1         0.1174161216E-01      0.2749775089E-01
          0                 4           1             4    7     1      -0.8386015525E-05       4    7    1        -0.4796308874E-03      0.1123718163E-02

    ------------------------------------------------
       NWT REQUIRED            4 OUTER ITERATIONS 
       AND A TOTAL OF          7 INNER ITERATIONS.
    ------------------------------------------------

 NO OUTPUT CONTROL FOR STRESS PERIOD   36   TIME STEP    8
 
 SOLVING FOR HEAD 
                                                   Max.-Head-Change                         Max.-Flux-Residual
  Residual-Control   Outer-Iter.   Inner-Iter.     Column Row Layer    Maximum-Head-Change  Column Row Layer    Maximum-Flux-Residual          L2-NORM 
          0                 1           2             4    7     1       0.3148395990E-01       4    7    1         0.1657331577E+01      0.3891761172E+01
          0                 2           2             4    7     1      -0.3060895736E-02       4    7    1        -0.1656448134E+00      0.3890357753E+00
          0                 3           2             4    7     1       0.2082787936E-03       4    7    1         0.1158639891E-01      0.2721880188E-01
          0                 4           1             4    7     1      -0.8277238939E-05       4    7    1        -0.4732904465E-03      0.1112318033E-02

    ------------------------------------------------
       NWT REQUIRED            4 OUTER ITERATIONS 
       AND A TOTAL OF          7 INNER ITERATIONS.
    ------------------------------------------------

 NO OUTPUT CONTROL FOR STRESS PERIOD   36   TIME STEP    9
 
 SOLVING FOR HEAD 
                                                   Max.-Head-Change                         Max.-Flux-Residual
  Residual-Control   Outer-Iter.   Inner-Iter.     Column Row Layer    Maximum-Head-Change  Column Row Layer    Maximum-Flux-Residual          L2-NORM 
          0                 1           2             4    7     1       0.3108300303E-01       4    7    1         0.1635836569E+01      0.3852739261E+01
          0                 2           2             4    7     1      -0.3021913663E-02       4    7    1        -0.1634964097E+00      0.3851347958E+00
          0                 3           2             4    7     1       0.2056262301E-03       4    7    1         0.1143612219E-01      0.2694584896E-01
          0                 4           1             4    7     1      -0.8171821085E-05       4    7    1        -0.4671516913E-03      0.1101167798E-02

    ------------------------------------------------
       NWT REQUIRED            4 OUTER ITERATIONS 
       AND A TOTAL OF          7 INNER ITERATIONS.
    ------------------------------------------------

 NO OUTPUT CONTROL FOR STRESS PERIOD   36   TIME STEP   10
 
 SOLVING FOR HEAD 
                                                   Max.-Head-Change                         Max.-Flux-Residual
  Residual-Control   Outer-Iter.   Inner-Iter.     Column Row Layer    Maximum-Head-Change  Column Row Layer    Maximum-Flux-Residual          L2-NORM 
          0                 1           2             4    7     1       0.3069403298E-01       4    7    1         0.1615003807E+01      0.3814541227E+01
          0                 2           2             4    7     1      -0.2984097014E-02       4    7    1        -0.1614141988E+00      0.3813162111E+00
          0                 3           2             4    7     1       0.2030529701E-03       4    7    1         0.1129047564E-01      0.2667867585E-01
          0                 4           1             4    7     1      -0.8069554619E-05       4    7    1        -0.4612020643E-03      0.1090247290E-02

    ------------------------------------------------
       NWT REQUIRED            4 OUTER ITERATIONS 
       AND A TOTAL OF          7 INNER ITERATIONS.
    ------------------------------------------------

 NO OUTPUT CONTROL FOR STRESS PERIOD   36   TIME STEP   11
 
 SOLVING FOR HEAD 
                                                   Max.-Head-Change                         Max.-Flux-Residual
  Residual-Control   Outer-Iter.   Inner-Iter.     Column Row Layer    Maximum-Head-Change  Column Row Layer    Maximum-Flux-Residual          L2-NORM 
          0                 1           2             4    7     1       0.3031632697E-01       4    7    1         0.1594792541E+01      0.3777118468E+01
          0                 2           2             4    7     1      -0.2947375495E-02       4    7    1        -0.1593941077E+00      0.3775589520E+00
          0                 3           2             4    7     1       0.2005542304E-03       4    7    1         0.1114917433E-01      0.2641578307E-01
          0                 4           1             4    7     1      -0.7970250041E-05       4    7    1        -0.4554299444E-03      0.1079503575E-02

    ------------------------------------------------
       NWT REQUIRED            4 OUTER ITERATIONS 
       AND A TOTAL OF          7 INNER ITERATIONS.
    ------------------------------------------------

 NO OUTPUT CONTROL FOR STRESS PERIOD   36   TIME STEP   12
 
 SOLVING FOR HEAD 
                                                   Max.-Head-Change                         Max.-Flux-Residual
  Residual-Control   Outer-Iter.   Inner-Iter.     Column Row Layer    Maximum-Head-Change  Column Row Layer    Maximum-Flux-Residual          L2-NORM 
          0                 1           2             4    7     1       0.2994922040E-01       4    7    1         0.1575165296E+01      0.3740460603E+01
          0                 2           2             4    7     1      -0.2911683923E-02       4    7    1        -0.1574323906E+00      0.3738656880E+00
          0                 3           2             4    7     1       0.1981255754E-03       4    7    1         0.1101195623E-01      0.2615737303E-01
          0                 4           1             4    7     1      -0.7873730745E-05       4    7    1        -0.4498246426E-03      0.1068943051E-02

    ------------------------------------------------
       NWT REQUIRED            4 OUTER ITERATIONS 
       AND A TOTAL OF          7 INNER ITERATIONS.
    ------------------------------------------------

 NO OUTPUT CONTROL FOR STRESS PERIOD   36   TIME STEP   13
 
 SOLVING FOR HEAD 
                                                   Max.-Head-Change                         Max.-Flux-Residual
  Residual-Control   Outer-Iter.   Inner-Iter.     Column Row Layer    Maximum-Head-Change  Column Row Layer    Maximum-Flux-Residual          L2-NORM 
          0                 1           2             4    7     1       0.2959222443E-01       4    7    1         0.1556094934E+01      0.3704568336E+01
          0                 2           2             4    7     1      -0.2876976577E-02       4    7    1        -0.1555263348E+00      0.3703225619E+00
          0                 3           2             4    7     1       0.1957638947E-03       4    7    1         0.1087863162E-01      0.2591068243E-01
          0                 4           1             4    7     1      -0.7779874005E-05       4    7    1        -0.4443784201E-03      0.1058967845E-02

    ------------------------------------------------
       NWT REQUIRED            4 OUTER ITERATIONS 
       AND A TOTAL OF          7 INNER ITERATIONS.
    ------------------------------------------------

 NO OUTPUT CONTROL FOR STRESS PERIOD   36   TIME STEP   14
 
 SOLVING FOR HEAD 
                                                   Max.-Head-Change                         Max.-Flux-Residual
  Residual-Control   Outer-Iter.   Inner-Iter.     Column Row Layer    Maximum-Head-Change  Column Row Layer    Maximum-Flux-Residual          L2-NORM 
          0                 1           2             4    7     1       0.2924476188E-01       4    7    1         0.1537548725E+01      0.3669410299E+01
          0                 2           2             4    7     1      -0.2843195497E-02       4    7    1        -0.1536726690E+00      0.3668079890E+00
          0                 3           2             4    7     1       0.1934652424E-03       4    7    1         0.1074897162E-01      0.2566354705E-01
          0                 4           1             4    7     1      -0.7688521060E-05       4    7    1        -0.4390818503E-03      0.1048742929E-02

    ------------------------------------------------
       NWT REQUIRED            4 OUTER ITERATIONS 
       AND A TOTAL OF          7 INNER ITERATIONS.
    ------------------------------------------------

 NO OUTPUT CONTROL FOR STRESS PERIOD   36   TIME STEP   15
 
 SOLVING FOR HEAD 
                                                   Max.-Head-Change                         Max.-Flux-Residual
  Residual-Control   Outer-Iter.   Inner-Iter.     Column Row Layer    Maximum-Head-Change  Column Row Layer    Maximum-Flux-Residual          L2-NORM 
          0                 1           2             4    7     1       0.2890629723E-01       4    7    1         0.1519496840E+01      0.3634899490E+01
          0                 2           2             4    7     1      -0.2810289237E-02       4    7    1        -0.1518684116E+00      0.3633581024E+00
          0                 3           2             4    7     1       0.1912261191E-03       4    7    1         0.1062276772E-01      0.2542217999E-01
          0                 4           1             4    7     1      -0.7599535023E-05       4    7    1        -0.4339264935E-03      0.1038891550E-02

    ------------------------------------------------
       NWT REQUIRED            4 OUTER ITERATIONS 
       AND A TOTAL OF          7 INNER ITERATIONS.
    ------------------------------------------------

 NO OUTPUT CONTROL FOR STRESS PERIOD   36   TIME STEP   16
 
 SOLVING FOR HEAD 
                                                   Max.-Head-Change                         Max.-Flux-Residual
  Residual-Control   Outer-Iter.   Inner-Iter.     Column Row Layer    Maximum-Head-Change  Column Row Layer    Maximum-Flux-Residual          L2-NORM 
          0                 1           2             4    7     1       0.2857620077E-01       4    7    1         0.1501904190E+01      0.3601017463E+01
          0                 2           2             4    7     1      -0.2778196571E-02       4    7    1        -0.1501100554E+00      0.3599710831E+00
          0                 3           2             4    7     1       0.1890423584E-03       4    7    1         0.1049977456E-01      0.2518522713E-01
          0                 4           1             4    7     1      -0.7512748614E-05       4    7    1        -0.4289022918E-03      0.1029220534E-02

    ------------------------------------------------
       NWT REQUIRED            4 OUTER ITERATIONS 
       AND A TOTAL OF          7 INNER ITERATIONS.
    ------------------------------------------------

 NO OUTPUT CONTROL FOR STRESS PERIOD   36   TIME STEP   17
 
 SOLVING FOR HEAD 
                                                   Max.-Head-Change                         Max.-Flux-Residual
  Residual-Control   Outer-Iter.   Inner-Iter.     Column Row Layer    Maximum-Head-Change  Column Row Layer    Maximum-Flux-Residual          L2-NORM 
          0                 1           2             4    7     1       0.2825428102E-01       4    7    1         0.1484759997E+01      0.3567736417E+01
          0                 2           2             4    7     1      -0.2746898884E-02       4    7    1        -0.1483965232E+00      0.3566443860E+00
          0                 3           2             4    7     1       0.1869126933E-03       4    7    1         0.1037991680E-01      0.2495273791E-01
          0                 4           1             4    7     1      -0.7428112214E-05       4    7    1        -0.4240061751E-03      0.1019705996E-02

    ------------------------------------------------
       NWT REQUIRED            4 OUTER ITERATIONS 
       AND A TOTAL OF          7 INNER ITERATIONS.
    ------------------------------------------------

 NO OUTPUT CONTROL FOR STRESS PERIOD   36   TIME STEP   18
 
 SOLVING FOR HEAD 
                                                   Max.-Head-Change                         Max.-Flux-Residual
  Residual-Control   Outer-Iter.   Inner-Iter.     Column Row Layer    Maximum-Head-Change  Column Row Layer    Maximum-Flux-Residual          L2-NORM 
          0                 1           2             4    7     1       0.2793997379E-01       4    7    1         0.1468032460E+01      0.3535036056E+01
          0                 2           2             4    7     1      -0.2716341320E-02       4    7    1        -0.1467246362E+00      0.3533752622E+00
          0                 3           2             4    7     1       0.1848333915E-03       4    7    1         0.1026297211E-01      0.2472373532E-01
          0                 4           1             4    7     1      -0.7345477882E-05       4    7    1        -0.4192290621E-03      0.1010350928E-02

    ------------------------------------------------
       NWT REQUIRED            4 OUTER ITERATIONS 
       AND A TOTAL OF          7 INNER ITERATIONS.
    ------------------------------------------------

 NO OUTPUT CONTROL FOR STRESS PERIOD   36   TIME STEP   19
 
 SOLVING FOR HEAD 
                                                   Max.-Head-Change                         Max.-Flux-Residual
  Residual-Control   Outer-Iter.   Inner-Iter.     Column Row Layer    Maximum-Head-Change  Column Row Layer    Maximum-Flux-Residual          L2-NORM 
          0                 1           2             4    7     1       0.2763288460E-01       4    7    1         0.1451699619E+01      0.3502897425E+01
          0                 2           2             4    7     1      -0.2686485527E-02       4    7    1        -0.1450921995E+00      0.3501625636E+00
          0                 3           2             4    7     1       0.1828018423E-03       4    7    1         0.1014878689E-01      0.2449897514E-01
          0                 4           1             4    7     1      -0.7264740738E-05       4    7    1        -0.4145646785E-03      0.1001175029E-02

    ------------------------------------------------
       NWT REQUIRED            4 OUTER ITERATIONS 
       AND A TOTAL OF          7 INNER ITERATIONS.
    ------------------------------------------------

 NO OUTPUT CONTROL FOR STRESS PERIOD   36   TIME STEP   20
 
 SOLVING FOR HEAD 
                                                   Max.-Head-Change                         Max.-Flux-Residual
  Residual-Control   Outer-Iter.   Inner-Iter.     Column Row Layer    Maximum-Head-Change  Column Row Layer    Maximum-Flux-Residual          L2-NORM 
          0                 1           2             4    7     1       0.2733277876E-01       4    7    1         0.1435748313E+01      0.3471306942E+01
          0                 2           2             4    7     1      -0.2657308686E-02       4    7    1        -0.1434978976E+00      0.3470046553E+00
          0                 3           2             4    7     1       0.1808164936E-03       4    7    1         0.1003726918E-01      0.2427801686E-01
          0                 4           1             4    7     1      -0.7185839879E-05       4    7    1        -0.4100092435E-03      0.9921300028E-03

    ------------------------------------------------
       NWT REQUIRED            4 OUTER ITERATIONS 
       AND A TOTAL OF          7 INNER ITERATIONS.
    ------------------------------------------------

 NO OUTPUT CONTROL FOR STRESS PERIOD   36   TIME STEP   21
 
 SOLVING FOR HEAD 
                                                   Max.-Head-Change                         Max.-Flux-Residual
  Residual-Control   Outer-Iter.   Inner-Iter.     Column Row Layer    Maximum-Head-Change  Column Row Layer    Maximum-Flux-Residual          L2-NORM 
          0                 1           2             4    7     1       0.2703917103E-01       4    7    1         0.1420151788E+01      0.3440232875E+01
          0                 2           2             4    7     1      -0.2628763619E-02       4    7    1        -0.1419390565E+00      0.3438983910E+00
          0                 3           2             4    7     1       0.1788741347E-03       4    7    1         0.9928231906E-02      0.2406068905E-01
          0                 4           1             4    7     1      -0.7108647168E-05       4    7    1        -0.4055551442E-03      0.9832574925E-03

    ------------------------------------------------
       NWT REQUIRED            4 OUTER ITERATIONS 
       AND A TOTAL OF          7 INNER ITERATIONS.
    ------------------------------------------------

 NO OUTPUT CONTROL FOR STRESS PERIOD   36   TIME STEP   22
 
 SOLVING FOR HEAD 
                                                   Max.-Head-Change                         Max.-Flux-Residual
  Residual-Control   Outer-Iter.   Inner-Iter.     Column Row Layer    Maximum-Head-Change  Column Row Layer    Maximum-Flux-Residual          L2-NORM 
          0                 1           2             4    7     1       0.2675187789E-01       4    7    1         0.1404899472E+01      0.3409674978E+01
          0                 2           2             4    7     1      -0.2600832482E-02       4    7    1        -0.1404146192E+00      0.3408436833E+00
          0                 3           2             4    7     1       0.1769735521E-03       4    7    1         0.9821601139E-02      0.2384692542E-01
          0                 4           1             4    7     1      -0.7033115864E-05       4    7    1        -0.4011993897E-03      0.9745196702E-03

    ------------------------------------------------
       NWT REQUIRED            4 OUTER ITERATIONS 
       AND A TOTAL OF          7 INNER ITERATIONS.
    ------------------------------------------------

 NO OUTPUT CONTROL FOR STRESS PERIOD   36   TIME STEP   23
 
 SOLVING FOR HEAD 
                                                   Max.-Head-Change                         Max.-Flux-Residual
  Residual-Control   Outer-Iter.   Inner-Iter.     Column Row Layer    Maximum-Head-Change  Column Row Layer    Maximum-Flux-Residual          L2-NORM 
          0                 1           2             4    7     1       0.2647046313E-01       4    7    1         0.1389967261E+01      0.3379599546E+01
          0                 2           2             4    7     1      -0.2573472866E-02       4    7    1        -0.1389221768E+00      0.3378373078E+00
          0                 3           2             4    7     1       0.1751118588E-03       4    7    1         0.9717208371E-02      0.2363663629E-01
          0                 4           1             4    7     1      -0.6959129457E-05       4    7    1        -0.3969350105E-03      0.9659273400E-03

    ------------------------------------------------
       NWT REQUIRED            4 OUTER ITERATIONS 
       AND A TOTAL OF          7 INNER ITERATIONS.
    ------------------------------------------------

 NO OUTPUT CONTROL FOR STRESS PERIOD   36   TIME STEP   24
 
 SOLVING FOR HEAD 
                                                   Max.-Head-Change                         Max.-Flux-Residual
  Residual-Control   Outer-Iter.   Inner-Iter.     Column Row Layer    Maximum-Head-Change  Column Row Layer    Maximum-Flux-Residual          L2-NORM 
          0                 1           2             4    7     1       0.2619478986E-01       4    7    1         0.1375347128E+01      0.3350010840E+01
          0                 2           2             4    7     1      -0.2546671460E-02       4    7    1        -0.1374609266E+00      0.3348795393E+00
          0                 3           2             4    7     1       0.1732881503E-03       4    7    1         0.9614997468E-02      0.2342969480E-01
          0                 4           1             4    7     1      -0.6886652718E-05       4    7    1        -0.3927597938E-03      0.9574652217E-03

    ------------------------------------------------
       NWT REQUIRED            4 OUTER ITERATIONS 
       AND A TOTAL OF          7 INNER ITERATIONS.
    ------------------------------------------------

 NO OUTPUT CONTROL FOR STRESS PERIOD   36   TIME STEP   25
 
 SOLVING FOR HEAD 
                                                   Max.-Head-Change                         Max.-Flux-Residual
  Residual-Control   Outer-Iter.   Inner-Iter.     Column Row Layer    Maximum-Head-Change  Column Row Layer    Maximum-Flux-Residual          L2-NORM 
          0                 1           2             4    7     1       0.2592472647E-01       4    7    1         0.1361031974E+01      0.3320885335E+01
          0                 2           2             4    7     1      -0.2520415034E-02       4    7    1        -0.1360301593E+00      0.3319504283E+00
          0                 3           2             4    7     1       0.1715015250E-03       4    7    1         0.9514918811E-02      0.2322477308E-01
          0                 4           1             4    7     1      -0.6815649498E-05       4    7    1        -0.3886716579E-03      0.9490950317E-03

    ------------------------------------------------
       NWT REQUIRED            4 OUTER ITERATIONS 
       AND A TOTAL OF          7 INNER ITERATIONS.
    ------------------------------------------------

 NO OUTPUT CONTROL FOR STRESS PERIOD   36   TIME STEP   26
 
 SOLVING FOR HEAD 
                                                   Max.-Head-Change                         Max.-Flux-Residual
  Residual-Control   Outer-Iter.   Inner-Iter.     Column Row Layer    Maximum-Head-Change  Column Row Layer    Maximum-Flux-Residual          L2-NORM 
          0                 1           2             4    7     1       0.2565976141E-01       4    7    1         0.1346993118E+01      0.3292218788E+01
          0                 2           2             4    7     1      -0.2494655158E-02       4    7    1        -0.1346270080E+00      0.3291025299E+00
          0                 3           2             4    7     1       0.1697486883E-03       4    7    1         0.9416771839E-02      0.2302549486E-01
          0                 4           1             4    7     1      -0.6745989586E-05       4    7    1        -0.3846624411E-03      0.9409447757E-03

    ------------------------------------------------
       NWT REQUIRED            4 OUTER ITERATIONS 
       AND A TOTAL OF          7 INNER ITERATIONS.
    ------------------------------------------------

 NO OUTPUT CONTROL FOR STRESS PERIOD   36   TIME STEP   27
 
 SOLVING FOR HEAD 
                                                   Max.-Head-Change                         Max.-Flux-Residual
  Residual-Control   Outer-Iter.   Inner-Iter.     Column Row Layer    Maximum-Head-Change  Column Row Layer    Maximum-Flux-Residual          L2-NORM 
          0                 1           2             4    7     1       0.2539981307E-01       4    7    1         0.1333225848E+01      0.3264076621E+01
          0                 2           2             4    7     1      -0.2469382591E-02       4    7    1        -0.1332510018E+00      0.3262894209E+00
          0                 3           2             4    7     1       0.1680290106E-03       4    7    1         0.9320523631E-02      0.2282872172E-01
          0                 4           1             4    7     1      -0.6677647194E-05       4    7    1        -0.3807307828E-03      0.9329094194E-03

    ------------------------------------------------
       NWT REQUIRED            4 OUTER ITERATIONS 
       AND A TOTAL OF          7 INNER ITERATIONS.
    ------------------------------------------------

 NO OUTPUT CONTROL FOR STRESS PERIOD   36   TIME STEP   28
 
 SOLVING FOR HEAD 
                                                   Max.-Head-Change                         Max.-Flux-Residual
  Residual-Control   Outer-Iter.   Inner-Iter.     Column Row Layer    Maximum-Head-Change  Column Row Layer    Maximum-Flux-Residual          L2-NORM 
          0                 1           2             4    7     1       0.2514467035E-01       4    7    1         0.1319718708E+01      0.3236351391E+01
          0                 2           2             4    7     1      -0.2444577291E-02       4    7    1        -0.1319009957E+00      0.3235171032E+00
          0                 3           2             4    7     1       0.1663411305E-03       4    7    1         0.9226094096E-02      0.2263620605E-01
          0                 4           1             4    7     1      -0.6610568443E-05       4    7    1        -0.3768734159E-03      0.9250491516E-03

    ------------------------------------------------
       NWT REQUIRED            4 OUTER ITERATIONS 
       AND A TOTAL OF          7 INNER ITERATIONS.
    ------------------------------------------------

 NO OUTPUT CONTROL FOR STRESS PERIOD   36   TIME STEP   29
 
 SOLVING FOR HEAD 
                                                   Max.-Head-Change                         Max.-Flux-Residual
  Residual-Control   Outer-Iter.   Inner-Iter.     Column Row Layer    Maximum-Head-Change  Column Row Layer    Maximum-Flux-Residual          L2-NORM 
          0                 1           2             4    7     1       0.2489426868E-01       4    7    1         0.1306468025E+01      0.3209041518E+01
          0                 2           2             4    7     1      -0.2420232857E-02       4    7    1        -0.1305766224E+00      0.3207657384E+00
          0                 3           2             4    7     1       0.1646846077E-03       4    7    1         0.9133457535E-02      0.2244225813E-01
          0                 4           1             4    7     1      -0.6544736064E-05       4    7    1        -0.3730893000E-03      0.9171225009E-03

    ------------------------------------------------
       NWT REQUIRED            4 OUTER ITERATIONS 
       AND A TOTAL OF          7 INNER ITERATIONS.
    ------------------------------------------------

 NO OUTPUT CONTROL FOR STRESS PERIOD   36   TIME STEP   30



 STREAM LISTING     PERIOD     36   STEP       30

 LAYER ROW COL. STREAM  RCH.  FLOW INTO     FLOW TO   FLOW OUT OF   OVRLND.     DIRECT     STREAM       STREAM     STREAM     STREAM   STREAMBED  STREAMBED
                SEG.NO.  NO.  STRM. RCH.    AQUIFER    STRM. RCH.    RUNOFF     PRECIP       ET          HEAD       DEPTH      WIDTH   CONDCTNC.   GRADIENT

   1    1    1     1     1    1.9000E+01  2.1427E-01   1.8786E+01  0.000E+00  0.000E+00  0.000E+00  1.09413E+03  1.082E+00  1.166E+01  5.249E-02  1.361E+00
   1    2    2     1     2    1.8786E+01  3.3054E-01   1.8455E+01  0.000E+00  0.000E+00  0.000E+00  1.08914E+03  1.077E+00  1.158E+01  8.107E-02  1.359E+00
   1    3    3     1     3    1.8455E+01  2.8064E-01   1.8175E+01  0.000E+00  0.000E+00  0.000E+00  1.08349E+03  1.072E+00  1.149E+01  6.892E-02  1.357E+00
   1    3    4     1     4    1.8175E+01  2.5740E-01   1.7917E+01  0.000E+00  0.000E+00  0.000E+00  1.07848E+03  1.068E+00  1.140E+01  6.328E-02  1.356E+00
   1    4    5     2     1    1.5917E+01  3.0542E-01   1.5612E+01  0.000E+00  0.000E+00  0.000E+00  1.07285E+03  9.157E-01  1.200E+01  7.800E-02  1.305E+00
   1    5    6     2     2    1.5612E+01  2.3438E-01   1.5377E+01  0.000E+00  0.000E+00  0.000E+00  1.06742E+03  9.063E-01  1.200E+01  6.000E-02  1.302E+00
   1    6    6     2     3    1.5377E+01  2.3388E-01   1.5143E+01  0.000E+00  0.000E+00  0.000E+00  1.06269E+03  8.980E-01  1.200E+01  6.000E-02  1.299E+00
   1    7    6     2     4    1.5143E+01  2.3338E-01   1.4910E+01  0.000E+00  0.000E+00  0.000E+00  1.05797E+03  8.897E-01  1.200E+01  6.000E-02  1.297E+00
   1    8    6     2     5    1.4910E+01  2.3289E-01   1.4677E+01  0.000E+00  0.000E+00  0.000E+00  1.05324E+03  8.814E-01  1.200E+01  6.000E-02  1.294E+00
   1    3    5     3     1    2.0000E+00  2.8252E-01   1.7175E+00  0.000E+00  0.000E+00  0.000E+00  1.07555E+03  1.909E+00  9.636E+00  7.227E-02  1.955E+00
   1    3    6     3     2    1.7175E+00  2.4905E-01   1.4684E+00  0.000E+00  0.000E+00  0.000E+00  1.07264E+03  1.727E+00  8.909E+00  6.682E-02  1.864E+00
   1    3    7     3     3    1.4684E+00  1.9718E-01   1.2712E+00  0.000E+00  0.000E+00  0.000E+00  1.06987E+03  1.555E+00  8.218E+00  5.547E-02  1.777E+00
   1    4    8     3     4    1.2712E+00  2.2567E-01   1.0456E+00  0.000E+00  0.000E+00  0.000E+00  1.06682E+03  1.364E+00  7.455E+00  6.709E-02  1.682E+00
   1    5    8     3     5    1.0456E+00  1.5790E-01   8.8768E-01  0.000E+00  0.000E+00  0.000E+00  1.06362E+03  1.164E+00  6.655E+00  4.991E-02  1.582E+00
   1    6    8     3     6    8.8768E-01  5.5980E-02   8.3170E-01  0.000E+00  0.000E+00  0.000E+00  1.06158E+03  1.036E+00  6.145E+00  1.844E-02  1.518E+00
   1    5   10     4     1    1.0000E+01  9.0919E-02   9.9091E+00  0.000E+00  0.000E+00  0.000E+00  1.07836E+03  6.368E-01  1.000E+01  2.500E-02  1.212E+00
   1    5    9     4     2    9.9091E+00  1.8158E-01   9.7275E+00  0.000E+00  0.000E+00  0.000E+00  1.07154E+03  6.315E-01  1.000E+01  5.000E-02  1.211E+00
   1    6    8     4     3    9.7275E+00  1.2689E-01   9.6006E+00  0.000E+00  0.000E+00  0.000E+00  1.06381E+03  6.256E-01  1.000E+01  3.500E-02  1.209E+00
   1    6    8     5     1    1.0432E+01  2.2686E-01   1.0205E+01  0.000E+00  0.000E+00  0.000E+00  1.05868E+03  6.790E-01  1.542E+01  6.166E-02  1.226E+00
   1    7    7     5     2    1.0205E+01  2.7894E-01   9.9265E+00  0.000E+00  0.000E+00  0.000E+00  1.05417E+03  6.732E-01  1.519E+01  7.594E-02  1.224E+00
   1    8    7     5     3    9.9265E+00  1.9221E-01   9.7343E+00  0.000E+00  0.000E+00  0.000E+00  1.04992E+03  6.676E-01  1.497E+01  5.241E-02  1.223E+00
   1    8    6     5     4    9.7343E+00  1.3577E-01   9.5985E+00  0.000E+00  0.000E+00  0.000E+00  1.04691E+03  6.637E-01  1.482E+01  3.706E-02  1.221E+00
   1    9    6     6     1    2.4276E+01  2.5176E-01   2.4024E+01  0.000E+00  0.000E+00  0.000E+00  1.04392E+03  1.196E+00  1.200E+01  6.000E-02  1.399E+00
   1   10    7     6     2    2.4024E+01  2.5131E-01   2.3773E+01  0.000E+00  0.000E+00  0.000E+00  1.03937E+03  1.188E+00  1.200E+01  6.000E-02  1.396E+00
   1   11    7     6     3    2.3773E+01  2.5086E-01   2.3522E+01  0.000E+00  0.000E+00  0.000E+00  1.03482E+03  1.181E+00  1.200E+01  6.000E-02  1.394E+00
   1   12    7     6     4    2.3522E+01  2.5041E-01   2.3271E+01  0.000E+00  0.000E+00  0.000E+00  1.03026E+03  1.173E+00  1.200E+01  6.000E-02  1.391E+00
   1   13    7     6     5    2.3271E+01  8.1439E-03   2.3263E+01  0.000E+00  0.000E+00  0.000E+00  1.02708E+03  1.170E+00  1.200E+01  2.400E-02  1.131E-01
   1   14    9     7     1    1.5000E+02  1.3584E+00   1.4864E+02  0.000E+00  0.000E+00  0.000E+00  1.03987E+03  2.288E+00  5.529E+01  5.593E-01  8.096E-01
   1   13    8     7     2    1.4864E+02  1.9313E+00   1.4671E+02  0.000E+00  0.000E+00  0.000E+00  1.03478E+03  2.279E+00  5.526E+01  6.148E-01  1.047E+00
   1   13    7     7     3    1.4671E+02  1.6469E+00   1.4506E+02  0.000E+00  0.000E+00  0.000E+00  1.02969E+03  2.269E+00  5.521E+01  5.584E-01  9.831E-01
   1   13    6     8     1    1.6833E+02  1.0889E+00   1.6724E+02  0.000E+00  0.000E+00  0.000E+00  1.02481E+03  2.938E+00  4.260E+01  4.341E-01  8.362E-01
   1   13    5     8     2    1.6724E+02  3.3626E-01   1.6690E+02  0.000E+00  0.000E+00  0.000E+00  1.01856E+03  2.933E+00  4.253E+01  4.334E-01  2.586E-01
   1   13    4     8     3    1.6690E+02 -1.8836E+00   1.6879E+02  0.000E+00  0.000E+00  0.000E+00  1.01231E+03  2.938E+00  4.260E+01  4.341E+00 -1.446E-01
   1   13    3     8     4    1.6879E+02 -3.3900E+00   1.7218E+02  0.000E+00  0.000E+00  0.000E+00  1.00608E+03  2.955E+00  4.285E+01  4.367E+00 -2.588E-01
   1   13    2     8     5    1.7218E+02 -2.5157E+00   1.7469E+02  0.000E+00  0.000E+00  0.000E+00  9.99849E+02  2.974E+00  4.313E+01  4.395E+00 -1.908E-01
   1   13    1     8     6    1.7469E+02 -1.9670E+00   1.7666E+02  0.000E+00  0.000E+00  0.000E+00  9.94864E+02  2.989E+00  4.334E+01  2.650E+00 -2.474E-01





UNSATURATED ZONE PACKAGE VOLUMETRIC BUDGET FOR  TIME STEP    30 STRESS PERIOD   36
  ------------------------------------------------------------------------------



     CUMULATIVE VOLUMES      L**3       RATES FOR THIS TIME STEP      L**3/T
     ------------------                 ------------------------

           IN:                                      IN:
           ---                                      ---
        INFILTRATION =  1506918709.4244          INFILTRATION =           0.8475

          OUT:                                     OUT:
          ----                                     ----
              UZF ET =  1289422274.1155                UZF ET =           0.7500
        UZF RECHARGE =   217163724.0985          UZF RECHARGE =           0.0003

            IN - OUT =      332711.2104              IN - OUT =       9.7187E-02

          STORAGE:                                 STORAGE:
          --------                                 --------
      STORAGE CHANGE =      332729.3893        STORAGE CHANGE =       9.7187E-02

 PERCENT DISCREPANCY IS DIFFERENCE BETWEEN IN-OUT MINUS CHANGE IN STORAGE
 DIVIDED BY THE AVERAGE OF IN AND OUT TIMES 100

 PERCENT DISCREPANCY =          -0.00     PERCENT DISCREPANCY =           0.00






1
  VOLUMETRIC BUDGET FOR AGRICULTURAL FIELDS AT  END OF TIME STEP   30, STRESS PERIOD  36
  ------------------------------------------------------------------------------

     CUMULATIVE VOLUMES      L**3       RATES FOR THIS TIME STEP      L**3/T
     ------------------                 ------------------------

           IN:                                      IN:
           ---                                      ---
               AG WELLS  =  1428831872.0000                 AG WELLS  =           0.0000
      DIVERSION SEGMENTS =           0.0000        DIVERSION SEGMENTS =           0.0000
           GW IRRIGATION =           0.0000             GW IRRIGATION =           0.0000
           SW IRRIGATION =           0.0000             SW IRRIGATION =           0.0000
        SYSTEM LOSSES GW =           0.0000          SYSTEM LOSSES GW =           0.0000
        SYSTEM LOSSES SW =           0.0000          SYSTEM LOSSES SW =           0.0000

                TOTAL IN =  1428831872.0000                  TOTAL IN =           0.0000

          OUT:                                     OUT:
          ----                                     ----
               AG WELLS  =           0.0000                 AG WELLS  =           0.0000
      DIVERSION SEGMENTS =           0.0000        DIVERSION SEGMENTS =           0.0000
           GW IRRIGATION =  1428831872.0000             GW IRRIGATION =           0.0000
           SW IRRIGATION =           0.0000             SW IRRIGATION =           0.0000
        SYSTEM LOSSES GW =           0.0000          SYSTEM LOSSES GW =           0.0000
        SYSTEM LOSSES SW =           0.0000          SYSTEM LOSSES SW =           0.0000

               TOTAL OUT =  1428831872.0000                 TOTAL OUT =           0.0000

                IN - OUT =           0.0000                  IN - OUT =           0.0000

     PERCENT DISCREPANCY =           0.00         PERCENT DISCREPANCY =           0.00



1
  VOLUMETRIC BUDGET FOR ENTIRE MODEL AT END OF TIME STEP   30, STRESS PERIOD  36
  ------------------------------------------------------------------------------

     CUMULATIVE VOLUMES      L**3       RATES FOR THIS TIME STEP      L**3/T
     ------------------                 ------------------------

           IN:                                      IN:
           ---                                      ---
             STORAGE     =  1820586368.0000               STORAGE     =           8.5885
       CONSTANT HEAD     =           0.0000         CONSTANT HEAD     =           0.0000
     HEAD DEP BOUNDS     =    26334654.0000       HEAD DEP BOUNDS     =           0.2873
      STREAM LEAKAGE     =  1129932288.0000        STREAM LEAKAGE     =          12.0985
        UZF RECHARGE     =   217163648.0000          UZF RECHARGE     =       3.1309E-04
               GW ET     =           0.0000                 GW ET     =           0.0000
     SURFACE LEAKAGE     =           0.0000       SURFACE LEAKAGE     =           0.0000
           AG WELLS      =           0.0000             AG WELLS      =           0.0000

                TOTAL IN =  3194016768.0000                  TOTAL IN =          20.9746

          OUT:                                     OUT:
          ----                                     ----
             STORAGE     =   776310336.0000               STORAGE     =          10.9293
       CONSTANT HEAD     =           0.0000         CONSTANT HEAD     =           0.0000
     HEAD DEP BOUNDS     =    26952394.0000       HEAD DEP BOUNDS     =           0.2890
      STREAM LEAKAGE     =   944412032.0000        STREAM LEAKAGE     =           9.7562
        UZF RECHARGE     =           0.0000          UZF RECHARGE     =           0.0000
               GW ET     =    17516202.0000                 GW ET     =           0.0000
     SURFACE LEAKAGE     =           0.0000       SURFACE LEAKAGE     =           0.0000
           AG WELLS      =  1428831872.0000             AG WELLS      =           0.0000

               TOTAL OUT =  3194022912.0000                 TOTAL OUT =          20.9746

                IN - OUT =       -6144.0000                  IN - OUT =       1.1444E-05

     PERCENT DISCREPANCY =          -0.00         PERCENT DISCREPANCY =           0.00






         TIME SUMMARY AT END OF TIME STEP   30 IN STRESS PERIOD   36
                    SECONDS     MINUTES      HOURS       DAYS        YEARS
                    -----------------------------------------------------------
   TIME STEP LENGTH  87667.      1461.1      24.352      1.0147     2.77799E-03
 STRESS PERIOD TIME 2.63000E+06  43833.      730.56      30.440     8.33397E-02
         TOTAL TIME 9.21360E+07 1.53560E+06  25593.      1066.4      2.9196    
1
1
                            STRESS PERIOD NO.   37, LENGTH =   2630000.    
                            -----------------------------------------------

                              NUMBER OF TIME STEPS =    30

                               MULTIPLIER FOR DELT =     1.000

                            INITIAL TIME STEP SIZE =   87666.66    

 REUSING NON-PARAMETER GHB CELLS FROM LAST STRESS PERIOD

      2 GHB CELLS

 REUSING STREAM SEGMENT DATA FROM LAST STRESS PERIOD



            AREAL INFILTRATION RATE
 READING ON UNIT   19 WITH FORMAT: (FREE)              

            1           2           3           4           5           6           7           8           9          10
 ........................................................................................................................
   1   1.0000E-10  2.0000E-10   0.000       0.000       0.000       0.000       0.000       0.000       0.000       0.000    
   2   2.0000E-10  1.0000E-10  2.0000E-10   0.000       0.000      8.0000E-10  8.0000E-10  5.0000E-10   0.000       0.000    
   3    0.000      5.0000E-10  1.0000E-10  1.0000E-10  8.0000E-10  8.0000E-10  5.0000E-10  5.0000E-10   0.000       0.000    
   4   8.0000E-10  5.0000E-10  1.0000E-10  1.0000E-10  1.0000E-10  1.0000E-10  1.0000E-10  1.0000E-10  2.0000E-10   0.000    
   5   8.0000E-10  5.0000E-10  1.0000E-10  1.0000E-10  1.0000E-10  1.0000E-10  1.0000E-10  1.0000E-10  1.0000E-10  1.0000E-10
   6   8.0000E-10  5.0000E-10  5.0000E-10  2.0000E-10  2.0000E-10  1.0000E-10  1.0000E-10  1.0000E-10  1.0000E-10  5.0000E-10
   7   8.0000E-10  5.0000E-10  5.0000E-10  2.0000E-10  2.0000E-10  1.0000E-10  1.0000E-10  2.0000E-10  2.0000E-10   0.000    
   8    0.000      5.0000E-10  5.0000E-10  2.0000E-10  2.0000E-10  1.0000E-10  1.0000E-10  2.0000E-10  5.0000E-10   0.000    
   9    0.000      5.0000E-10  5.0000E-10  2.0000E-10  2.0000E-10  1.0000E-10  1.0000E-10  2.0000E-10  5.0000E-10   0.000    
  10    0.000      5.0000E-10  5.0000E-10  2.0000E-10  2.0000E-10  1.0000E-10  1.0000E-10  2.0000E-10  5.0000E-10  8.0000E-10
  11    0.000      1.0000E-10  1.0000E-10  1.0000E-10  1.0000E-10  1.0000E-10  1.0000E-10  2.0000E-10  5.0000E-10   0.000    
  12   1.0000E-10  1.0000E-10  1.0000E-10  1.0000E-10  1.0000E-10  1.0000E-10  1.0000E-10  1.0000E-10  2.0000E-10   0.000    
  13   1.0000E-10  1.0000E-10  2.0000E-10  2.0000E-10  2.0000E-10  2.0000E-10  2.0000E-10  1.0000E-10  1.0000E-10   0.000    
  14    0.000      2.0000E-10  5.0000E-10  5.0000E-10  5.0000E-10  5.0000E-10  5.0000E-10  2.0000E-10  1.0000E-10   0.000    
  15    0.000       0.000      8.0000E-10  8.0000E-10  8.0000E-10  8.0000E-10   0.000       0.000       0.000       0.000    

                  ET RATE =  5.000000E-10

 USING ET EXTINCTION DEPTH FROM PREVIOUS STRESS PERIOD. CURRENT PERIOD IS:      37

 USING EXTINCTION WATER CONTENT FROM PREVIOUS STRESS PERIOD. CURRENT PERIOD IS:      37

 USING AIR ENTRY PRESSURE FROM PREVIOUS STRESS PERIOD. CURRENT PERIOD IS:      37

 USING ROOT PRESSURE HEAD FROM PREVIOUS STRESS PERIOD. CURRENT PERIOD IS:      37

 USING ROOT ACTIVITY FROM PREVIOUS STRESS PERIOD. CURRENT PERIOD IS:      37

 PROCESSING AG STRESS PERIOD DATA

 READING AG STRESS PERIOD DATA

 READING IRRIGATION WELL

 END PROCESSING AG STRESS PERIOD DATA OPTIONS
 
 SOLVING FOR HEAD 
                                                   Max.-Head-Change                         Max.-Flux-Residual
  Residual-Control   Outer-Iter.   Inner-Iter.     Column Row Layer    Maximum-Head-Change  Column Row Layer    Maximum-Flux-Residual          L2-NORM 
          0                 1           2             4    7     1       0.2464828430E-01       4    7    1         0.1293455864E+01      0.3182154291E+01
          0                 2           2             4    7     1      -0.2396317935E-02       4    7    1        -0.1292760893E+00      0.3181004122E+00
          0                 3           2             4    7     1       0.1630573132E-03       4    7    1         0.9042488564E-02      0.2225579094E-01
          0                 4           1             4    7     1      -0.6480065322E-05       4    7    1        -0.3693733195E-03      0.9094951606E-03

    ------------------------------------------------
       NWT REQUIRED            4 OUTER ITERATIONS 
       AND A TOTAL OF          7 INNER ITERATIONS.
    ------------------------------------------------

 NO OUTPUT CONTROL FOR STRESS PERIOD   37   TIME STEP    1
 
 SOLVING FOR HEAD 
                                                   Max.-Head-Change                         Max.-Flux-Residual
  Residual-Control   Outer-Iter.   Inner-Iter.     Column Row Layer    Maximum-Head-Change  Column Row Layer    Maximum-Flux-Residual          L2-NORM 
          0                 1           2             4    7     1       0.2440654436E-01       4    7    1         0.1280672728E+01      0.3155662708E+01
          0                 2           2             4    7     1      -0.2372815647E-02       4    7    1        -0.1279984474E+00      0.3154523047E+00
          0                 3           2             4    7     1       0.1614580964E-03       4    7    1         0.8953120775E-02      0.2207054035E-01
          0                 4           1             4    7     1      -0.6416510166E-05       4    7    1        -0.3657227269E-03      0.9019220396E-03

    ------------------------------------------------
       NWT REQUIRED            4 OUTER ITERATIONS 
       AND A TOTAL OF          7 INNER ITERATIONS.
    ------------------------------------------------

 NO OUTPUT CONTROL FOR STRESS PERIOD   37   TIME STEP    2
 
 SOLVING FOR HEAD 
                                                   Max.-Head-Change                         Max.-Flux-Residual
  Residual-Control   Outer-Iter.   Inner-Iter.     Column Row Layer    Maximum-Head-Change  Column Row Layer    Maximum-Flux-Residual          L2-NORM 
          0                 1           2             4    7     1       0.2416889264E-01       4    7    1         0.1268109660E+01      0.3129555115E+01
          0                 2           2             4    7     1      -0.2349710830E-02       4    7    1        -0.1267428010E+00      0.3128425712E+00
          0                 3           2             4    7     1       0.1598859257E-03       4    7    1         0.8865291546E-02      0.2188795402E-01
          0                 4           1             4    7     1      -0.6354030072E-05       4    7    1        -0.3621349776E-03      0.8944718941E-03

    ------------------------------------------------
       NWT REQUIRED            4 OUTER ITERATIONS 
       AND A TOTAL OF          7 INNER ITERATIONS.
    ------------------------------------------------

 NO OUTPUT CONTROL FOR STRESS PERIOD   37   TIME STEP    3
 
 SOLVING FOR HEAD 
                                                   Max.-Head-Change                         Max.-Flux-Residual
  Residual-Control   Outer-Iter.   Inner-Iter.     Column Row Layer    Maximum-Head-Change  Column Row Layer    Maximum-Flux-Residual          L2-NORM 
          0                 1           2             4    7     1       0.2393530961E-01       4    7    1         0.1255765855E+01      0.3103827585E+01
          0                 2           2             4    7     1      -0.2327001584E-02       4    7    1        -0.1255090700E+00      0.3102708025E+00
          0                 3           2             4    7     1       0.1583406723E-03       4    7    1         0.8778995276E-02      0.2170801228E-01
          0                 4           1             4    7     1      -0.6292619513E-05       4    7    1        -0.3586098551E-03      0.8871215272E-03

    ------------------------------------------------
       NWT REQUIRED            4 OUTER ITERATIONS 
       AND A TOTAL OF          7 INNER ITERATIONS.
    ------------------------------------------------

 NO OUTPUT CONTROL FOR STRESS PERIOD   37   TIME STEP    4
 
 SOLVING FOR HEAD 
                                                   Max.-Head-Change                         Max.-Flux-Residual
  Residual-Control   Outer-Iter.   Inner-Iter.     Column Row Layer    Maximum-Head-Change  Column Row Layer    Maximum-Flux-Residual          L2-NORM 
          0                 1           2             4    7     1       0.2370564641E-01       4    7    1         0.1243633005E+01      0.3078465158E+01
          0                 2           2             4    7     1      -0.2304673436E-02       4    7    1        -0.1242964238E+00      0.3077355906E+00
          0                 3           2             4    7     1       0.1568213511E-03       4    7    1         0.8694173830E-02      0.2153065004E-01
          0                 4           1             4    7     1      -0.6232240152E-05       4    7    1        -0.3551449984E-03      0.8798763932E-03

    ------------------------------------------------
       NWT REQUIRED            4 OUTER ITERATIONS 
       AND A TOTAL OF          7 INNER ITERATIONS.
    ------------------------------------------------

 NO OUTPUT CONTROL FOR STRESS PERIOD   37   TIME STEP    5
 
 SOLVING FOR HEAD 
                                                   Max.-Head-Change                         Max.-Flux-Residual
  Residual-Control   Outer-Iter.   Inner-Iter.     Column Row Layer    Maximum-Head-Change  Column Row Layer    Maximum-Flux-Residual          L2-NORM 
          0                 1           2             4    7     1       0.2347962972E-01       4    7    1         0.1231696093E+01      0.3053461248E+01
          0                 2           2             4    7     1      -0.2282699813E-02       4    7    1        -0.1231033615E+00      0.3052362015E+00
          0                 3           2             4    7     1       0.1553261535E-03       4    7    1         0.8610722241E-02      0.2135580853E-01
          0                 4           1             4    7     1      -0.6172818999E-05       4    7    1        -0.3517360788E-03      0.8727219012E-03

    ------------------------------------------------
       NWT REQUIRED            4 OUTER ITERATIONS 
       AND A TOTAL OF          7 INNER ITERATIONS.
    ------------------------------------------------

 NO OUTPUT CONTROL FOR STRESS PERIOD   37   TIME STEP    6
 
 SOLVING FOR HEAD 
                                                   Max.-Head-Change                         Max.-Flux-Residual
  Residual-Control   Outer-Iter.   Inner-Iter.     Column Row Layer    Maximum-Head-Change  Column Row Layer    Maximum-Flux-Residual          L2-NORM 
          0                 1           2             4    7     1       0.2325726864E-01       4    7    1         0.1219955543E+01      0.3028809530E+01
          0                 2           2             4    7     1      -0.2261081597E-02       4    7    1        -0.1219299255E+00      0.3027720352E+00
          0                 3           2             4    7     1       0.1538551403E-03       4    7    1         0.8528643488E-02      0.2118341840E-01
          0                 4           1             4    7     1      -0.6114359276E-05       4    7    1        -0.3483832568E-03      0.8656809544E-03

    ------------------------------------------------
       NWT REQUIRED            4 OUTER ITERATIONS 
       AND A TOTAL OF          7 INNER ITERATIONS.
    ------------------------------------------------

 NO OUTPUT CONTROL FOR STRESS PERIOD   37   TIME STEP    7
 
 SOLVING FOR HEAD 
                                                   Max.-Head-Change                         Max.-Flux-Residual
  Residual-Control   Outer-Iter.   Inner-Iter.     Column Row Layer    Maximum-Head-Change  Column Row Layer    Maximum-Flux-Residual          L2-NORM 
          0                 1           2             4    7     1       0.2303830619E-01       4    7    1         0.1208397231E+01      0.3004496581E+01
          0                 2           2             4    7     1      -0.2239793807E-02       4    7    1        -0.1207747039E+00      0.3003417176E+00
          0                 3           2             4    7     1       0.1524066108E-03       4    7    1         0.8447838792E-02      0.2101338382E-01
          0                 4           1             4    7     1      -0.6056792943E-05       4    7    1        -0.3450824731E-03      0.8587359999E-03

    ------------------------------------------------
       NWT REQUIRED            4 OUTER ITERATIONS 
       AND A TOTAL OF          7 INNER ITERATIONS.
    ------------------------------------------------

 NO OUTPUT CONTROL FOR STRESS PERIOD   37   TIME STEP    8
 
 SOLVING FOR HEAD 
                                                   Max.-Head-Change                         Max.-Flux-Residual
  Residual-Control   Outer-Iter.   Inner-Iter.     Column Row Layer    Maximum-Head-Change  Column Row Layer    Maximum-Flux-Residual          L2-NORM 
          0                 1           2             4    7     1       0.2282276713E-01       4    7    1         0.1197022430E+01      0.2980525750E+01
          0                 2           2             4    7     1      -0.2218838849E-02       4    7    1        -0.1196378242E+00      0.2979456012E+00
          0                 3           2             4    7     1       0.1509807292E-03       4    7    1         0.8368317076E-02      0.2084573901E-01
          0                 4           1             4    7     1      -0.6000127023E-05       4    7    1        -0.3418340975E-03      0.8518781019E-03

    ------------------------------------------------
       NWT REQUIRED            4 OUTER ITERATIONS 
       AND A TOTAL OF          7 INNER ITERATIONS.
    ------------------------------------------------

 NO OUTPUT CONTROL FOR STRESS PERIOD   37   TIME STEP    9
 
 SOLVING FOR HEAD 
                                                   Max.-Head-Change                         Max.-Flux-Residual
  Residual-Control   Outer-Iter.   Inner-Iter.     Column Row Layer    Maximum-Head-Change  Column Row Layer    Maximum-Flux-Residual          L2-NORM 
          0                 1           2             4    7     1       0.2261053795E-01       4    7    1         0.1185825126E+01      0.2956879511E+01
          0                 2           2             4    7     1      -0.2198205685E-02       4    7    1        -0.1185186852E+00      0.2955819444E+00
          0                 3           2             4    7     1       0.1495767445E-03       4    7    1         0.8290036300E-02      0.2068039939E-01
          0                 4           1             4    7     1      -0.5944330776E-05       4    7    1        -0.3386364019E-03      0.8451318704E-03

    ------------------------------------------------
       NWT REQUIRED            4 OUTER ITERATIONS 
       AND A TOTAL OF          7 INNER ITERATIONS.
    ------------------------------------------------

 NO OUTPUT CONTROL FOR STRESS PERIOD   37   TIME STEP   10
 
 SOLVING FOR HEAD 
                                                   Max.-Head-Change                         Max.-Flux-Residual
  Residual-Control   Outer-Iter.   Inner-Iter.     Column Row Layer    Maximum-Head-Change  Column Row Layer    Maximum-Flux-Residual          L2-NORM 
          0                 1           2             4    7     1       0.2240151589E-01       4    7    1         0.1174799433E+01      0.2933558122E+01
          0                 2           2             4    7     1      -0.2177884326E-02       4    7    1        -0.1174166985E+00      0.2932507803E+00
          0                 3           2             4    7     1       0.1481939765E-03       4    7    1         0.8212955272E-02      0.2051731838E-01
          0                 4           1             4    7     1      -0.5889377955E-05       4    7    1        -0.3354877349E-03      0.8384719907E-03

    ------------------------------------------------
       NWT REQUIRED            4 OUTER ITERATIONS 
       AND A TOTAL OF          7 INNER ITERATIONS.
    ------------------------------------------------

 NO OUTPUT CONTROL FOR STRESS PERIOD   37   TIME STEP   11
 
 SOLVING FOR HEAD 
                                                   Max.-Head-Change                         Max.-Flux-Residual
  Residual-Control   Outer-Iter.   Inner-Iter.     Column Row Layer    Maximum-Head-Change  Column Row Layer    Maximum-Flux-Residual          L2-NORM 
          0                 1           2             4    7     1       0.2219560461E-01       4    7    1         0.1163940023E+01      0.2910556804E+01
          0                 2           2             4    7     1      -0.2157865406E-02       4    7    1        -0.1163313316E+00      0.2909515822E+00
          0                 3           2             4    7     1       0.1468317879E-03       4    7    1         0.8137036766E-02      0.2035645787E-01
          0                 4           1             4    7     1      -0.5835242770E-05       4    7    1        -0.3323865417E-03      0.8319027207E-03

    ------------------------------------------------
       NWT REQUIRED            4 OUTER ITERATIONS 
       AND A TOTAL OF          7 INNER ITERATIONS.
    ------------------------------------------------

 NO OUTPUT CONTROL FOR STRESS PERIOD   37   TIME STEP   12
 
 SOLVING FOR HEAD 
                                                   Max.-Head-Change                         Max.-Flux-Residual
  Residual-Control   Outer-Iter.   Inner-Iter.     Column Row Layer    Maximum-Head-Change  Column Row Layer    Maximum-Flux-Residual          L2-NORM 
          0                 1           2             4    7     1       0.2199257790E-01       4    7    1         0.1153234600E+01      0.2887863970E+01
          0                 2           2             4    7     1      -0.2138126929E-02       4    7    1        -0.1152613555E+00      0.2886832437E+00
          0                 3           2             4    7     1       0.1454886823E-03       4    7    1         0.8062194805E-02      0.2019776753E-01
          0                 4           1             4    7     1      -0.5781866391E-05       4    7    1        -0.3293293375E-03      0.8254138234E-03

    ------------------------------------------------
       NWT REQUIRED            4 OUTER ITERATIONS 
       AND A TOTAL OF          7 INNER ITERATIONS.
    ------------------------------------------------

 NO OUTPUT CONTROL FOR STRESS PERIOD   37   TIME STEP   13
 
 SOLVING FOR HEAD 
                                                   Max.-Head-Change                         Max.-Flux-Residual
  Residual-Control   Outer-Iter.   Inner-Iter.     Column Row Layer    Maximum-Head-Change  Column Row Layer    Maximum-Flux-Residual          L2-NORM 
          0                 1           2             4    7     1       0.2179261870E-01       4    7    1         0.1142693338E+01      0.2865471868E+01
          0                 2           2             4    7     1      -0.2118686685E-02       4    7    1        -0.1142077872E+00      0.2864449416E+00
          0                 3           2             4    7     1       0.1441658708E-03       4    7    1         0.7988500573E-02      0.2004117241E-01
          0                 4           1             4    7     1      -0.5729296481E-05       4    7    1        -0.3263190222E-03      0.8190095184E-03

    ------------------------------------------------
       NWT REQUIRED            4 OUTER ITERATIONS 
       AND A TOTAL OF          7 INNER ITERATIONS.
    ------------------------------------------------

 NO OUTPUT CONTROL FOR STRESS PERIOD   37   TIME STEP   14
 
 SOLVING FOR HEAD 
                                                   Max.-Head-Change                         Max.-Flux-Residual
  Residual-Control   Outer-Iter.   Inner-Iter.     Column Row Layer    Maximum-Head-Change  Column Row Layer    Maximum-Flux-Residual          L2-NORM 
          0                 1           2             4    7     1       0.2159537368E-01       4    7    1         0.1132296518E+01      0.2843380316E+01
          0                 2           2             4    7     1      -0.2099510770E-02       4    7    1        -0.1131686556E+00      0.2842709443E+00
          0                 3           2             4    7     1       0.1428610448E-03       4    7    1         0.7915816129E-02      0.1988883435E-01
          0                 4           1             4    7     1      -0.5677440822E-05       4    7    1        -0.3233499237E-03      0.8138938844E-03

    ------------------------------------------------
       NWT REQUIRED            4 OUTER ITERATIONS 
       AND A TOTAL OF          7 INNER ITERATIONS.
    ------------------------------------------------

 NO OUTPUT CONTROL FOR STRESS PERIOD   37   TIME STEP   15
 
 SOLVING FOR HEAD 
                                                   Max.-Head-Change                         Max.-Flux-Residual
  Residual-Control   Outer-Iter.   Inner-Iter.     Column Row Layer    Maximum-Head-Change  Column Row Layer    Maximum-Flux-Residual          L2-NORM 
          0                 1           2             4    7     1       0.2140103326E-01       4    7    1         0.1122055002E+01      0.2821554905E+01
          0                 2           2             4    7     1      -0.2080616345E-02       4    7    1        -0.1121450465E+00      0.2820550893E+00
          0                 3           2             4    7     1       0.1415753732E-03       4    7    1         0.7844217451E-02      0.1973406143E-01
          0                 4           1             4    7     1      -0.5626346617E-05       4    7    1        -0.3204252059E-03      0.8064524777E-03

    ------------------------------------------------
       NWT REQUIRED            4 OUTER ITERATIONS 
       AND A TOTAL OF          7 INNER ITERATIONS.
    ------------------------------------------------

 NO OUTPUT CONTROL FOR STRESS PERIOD   37   TIME STEP   16
 
 SOLVING FOR HEAD 
                                                   Max.-Head-Change                         Max.-Flux-Residual
  Residual-Control   Outer-Iter.   Inner-Iter.     Column Row Layer    Maximum-Head-Change  Column Row Layer    Maximum-Flux-Residual          L2-NORM 
          0                 1           2             4    7     1       0.2120938328E-01       4    7    1         0.1111956831E+01      0.2799987340E+01
          0                 2           2             4    7     1      -0.2061983943E-02       4    7    1        -0.1111357645E+00      0.2798992460E+00
          0                 3           2             4    7     1       0.1403075312E-03       4    7    1         0.7773620923E-02      0.1958324073E-01
          0                 4           1             4    7     1      -0.5575961368E-05       4    7    1        -0.3175414288E-03      0.8002988748E-03

    ------------------------------------------------
       NWT REQUIRED            4 OUTER ITERATIONS 
       AND A TOTAL OF          7 INNER ITERATIONS.
    ------------------------------------------------

 NO OUTPUT CONTROL FOR STRESS PERIOD   37   TIME STEP   17
 
 SOLVING FOR HEAD 
                                                   Max.-Head-Change                         Max.-Flux-Residual
  Residual-Control   Outer-Iter.   Inner-Iter.     Column Row Layer    Maximum-Head-Change  Column Row Layer    Maximum-Flux-Residual          L2-NORM 
          0                 1           2             4    7     1       0.2102035358E-01       4    7    1         0.1101998130E+01      0.2778702734E+01
          0                 2           2             4    7     1      -0.2043606289E-02       4    7    1        -0.1101404224E+00      0.2777716671E+00
          0                 3           2             4    7     1       0.1390570235E-03       4    7    1         0.7703999472E-02      0.1943440944E-01
          0                 4           1             4    7     1      -0.5526264583E-05       4    7    1        -0.3146974557E-03      0.7942118269E-03

    ------------------------------------------------
       NWT REQUIRED            4 OUTER ITERATIONS 
       AND A TOTAL OF          7 INNER ITERATIONS.
    ------------------------------------------------

 NO OUTPUT CONTROL FOR STRESS PERIOD   37   TIME STEP   18
 
 SOLVING FOR HEAD 
                                                   Max.-Head-Change                         Max.-Flux-Residual
  Residual-Control   Outer-Iter.   Inner-Iter.     Column Row Layer    Maximum-Head-Change  Column Row Layer    Maximum-Flux-Residual          L2-NORM 
          0                 1           2             4    7     1       0.2083387360E-01       4    7    1         0.1092175285E+01      0.2757698780E+01
          0                 2           2             4    7     1      -0.2025476524E-02       4    7    1        -0.1091586588E+00      0.2756721686E+00
          0                 3           2             4    7     1       0.1378233834E-03       4    7    1         0.7635327791E-02      0.1928752017E-01
          0                 4           1             4    7     1      -0.5477238415E-05       4    7    1        -0.3118922948E-03      0.7882221725E-03

    ------------------------------------------------
       NWT REQUIRED            4 OUTER ITERATIONS 
       AND A TOTAL OF          7 INNER ITERATIONS.
    ------------------------------------------------

 NO OUTPUT CONTROL FOR STRESS PERIOD   37   TIME STEP   19
 
 SOLVING FOR HEAD 
                                                   Max.-Head-Change                         Max.-Flux-Residual
  Residual-Control   Outer-Iter.   Inner-Iter.     Column Row Layer    Maximum-Head-Change  Column Row Layer    Maximum-Flux-Residual          L2-NORM 
          0                 1           2             4    7     1       0.2064988111E-01       4    7    1         0.1082484638E+01      0.2736966736E+01
          0                 2           2             4    7     1      -0.2007647353E-02       4    7    1        -0.1081901082E+00      0.2736732985E+00
          0                 3           2             4    7     1       0.1366101957E-03       4    7    1         0.7567580187E-02      0.1914768925E-01
          0                 4           1             4    7     1      -0.5429025163E-05       4    7    1        -0.3091248925E-03      0.7825006211E-03

    ------------------------------------------------
       NWT REQUIRED            4 OUTER ITERATIONS 
       AND A TOTAL OF          7 INNER ITERATIONS.
    ------------------------------------------------

 NO OUTPUT CONTROL FOR STRESS PERIOD   37   TIME STEP   20
 
 SOLVING FOR HEAD 
                                                   Max.-Head-Change                         Max.-Flux-Residual
  Residual-Control   Outer-Iter.   Inner-Iter.     Column Row Layer    Maximum-Head-Change  Column Row Layer    Maximum-Flux-Residual          L2-NORM 
          0                 1           2             4    7     1       0.2046825578E-01       4    7    1         0.1072927134E+01      0.2716438516E+01
          0                 2           2             4    7     1      -0.1989930846E-02       4    7    1        -0.1072348658E+00      0.2715478868E+00
          0                 3           2             4    7     1       0.1354046789E-03       4    7    1         0.7500763778E-02      0.1899898022E-01
          0                 4           1             4    7     1      -0.5381116309E-05       4    7    1        -0.3063955239E-03      0.7764233726E-03

    ------------------------------------------------
       NWT REQUIRED            4 OUTER ITERATIONS 
       AND A TOTAL OF          7 INNER ITERATIONS.
    ------------------------------------------------

 NO OUTPUT CONTROL FOR STRESS PERIOD   37   TIME STEP   21
 
 SOLVING FOR HEAD 
                                                   Max.-Head-Change                         Max.-Flux-Residual
  Residual-Control   Outer-Iter.   Inner-Iter.     Column Row Layer    Maximum-Head-Change  Column Row Layer    Maximum-Flux-Residual          L2-NORM 
          0                 1           2             4    7     1       0.2028898901E-01       4    7    1         0.1063491322E+01      0.2696163443E+01
          0                 2           2             4    7     1      -0.1972502370E-02       4    7    1        -0.1062917859E+00      0.2695212594E+00
          0                 3           2             4    7     1       0.1342187588E-03       4    7    1         0.7434797958E-02      0.1885721147E-01
          0                 4           1             4    7     1      -0.5333986869E-05       4    7    1        -0.3037009080E-03      0.7706242592E-03

    ------------------------------------------------
       NWT REQUIRED            4 OUTER ITERATIONS 
       AND A TOTAL OF          7 INNER ITERATIONS.
    ------------------------------------------------

 NO OUTPUT CONTROL FOR STRESS PERIOD   37   TIME STEP   22
 
 SOLVING FOR HEAD 
                                                   Max.-Head-Change                         Max.-Flux-Residual
  Residual-Control   Outer-Iter.   Inner-Iter.     Column Row Layer    Maximum-Head-Change  Column Row Layer    Maximum-Flux-Residual          L2-NORM 
          0                 1           2             4    7     1       0.2011197449E-01       4    7    1         0.1054174665E+01      0.2676152395E+01
          0                 2           2             4    7     1      -0.1955292862E-02       4    7    1        -0.1053606153E+00      0.2675209888E+00
          0                 3           2             4    7     1       0.1330477383E-03       4    7    1         0.7369665160E-02      0.1871727557E-01
          0                 4           1             4    7     1      -0.5287449299E-05       4    7    1        -0.3010403123E-03      0.7649175697E-03

    ------------------------------------------------
       NWT REQUIRED            4 OUTER ITERATIONS 
       AND A TOTAL OF          7 INNER ITERATIONS.
    ------------------------------------------------

 NO OUTPUT CONTROL FOR STRESS PERIOD   37   TIME STEP   23
 
 SOLVING FOR HEAD 
                                                   Max.-Head-Change                         Max.-Flux-Residual
  Residual-Control   Outer-Iter.   Inner-Iter.     Column Row Layer    Maximum-Head-Change  Column Row Layer    Maximum-Flux-Residual          L2-NORM 
          0                 1           2             4    7     1       0.1993716701E-01       4    7    1         0.1044974783E+01      0.2656392979E+01
          0                 2           2             4    7     1      -0.1938297925E-02       4    7    1        -0.1044411161E+00      0.2655459010E+00
          0                 3           2             4    7     1       0.1318913183E-03       4    7    1         0.7305348754E-02      0.1857911230E-01
          0                 4           1             4    7     1      -0.5241491628E-05       4    7    1        -0.2984130622E-03      0.7592712681E-03

    ------------------------------------------------
       NWT REQUIRED            4 OUTER ITERATIONS 
       AND A TOTAL OF          7 INNER ITERATIONS.
    ------------------------------------------------

 NO OUTPUT CONTROL FOR STRESS PERIOD   37   TIME STEP   24
 
 SOLVING FOR HEAD 
                                                   Max.-Head-Change                         Max.-Flux-Residual
  Residual-Control   Outer-Iter.   Inner-Iter.     Column Row Layer    Maximum-Head-Change  Column Row Layer    Maximum-Flux-Residual          L2-NORM 
          0                 1           2             4    7     1       0.1976465450E-01       4    7    1         0.1035896636E+01      0.2636889969E+01
          0                 2           2             4    7     1      -0.1921526110E-02       4    7    1        -0.1035337841E+00      0.2635964497E+00
          0                 3           2             4    7     1       0.1307500807E-03       4    7    1         0.7241883407E-02      0.1844272728E-01
          0                 4           1             4    7     1      -0.5196137800E-05       4    7    1        -0.2958205771E-03      0.7536963837E-03

    ------------------------------------------------
       NWT REQUIRED            4 OUTER ITERATIONS 
       AND A TOTAL OF          7 INNER ITERATIONS.
    ------------------------------------------------

 NO OUTPUT CONTROL FOR STRESS PERIOD   37   TIME STEP   25
 
 SOLVING FOR HEAD 
                                                   Max.-Head-Change                         Max.-Flux-Residual
  Residual-Control   Outer-Iter.   Inner-Iter.     Column Row Layer    Maximum-Head-Change  Column Row Layer    Maximum-Flux-Residual          L2-NORM 
          0                 1           2             4    7     1       0.1959439110E-01       4    7    1         0.1026937480E+01      0.2617641312E+01
          0                 2           2             4    7     1      -0.1904972957E-02       4    7    1        -0.1026383450E+00      0.2616724050E+00
          0                 3           2             4    7     1       0.1296237218E-03       4    7    1         0.7179249939E-02      0.1830812417E-01
          0                 4           1             4    7     1      -0.5151374808E-05       4    7    1        -0.2932620764E-03      0.7481978940E-03

    ------------------------------------------------
       NWT REQUIRED            4 OUTER ITERATIONS 
       AND A TOTAL OF          7 INNER ITERATIONS.
    ------------------------------------------------

 NO OUTPUT CONTROL FOR STRESS PERIOD   37   TIME STEP   26
 
 SOLVING FOR HEAD 
                                                   Max.-Head-Change                         Max.-Flux-Residual
  Residual-Control   Outer-Iter.   Inner-Iter.     Column Row Layer    Maximum-Head-Change  Column Row Layer    Maximum-Flux-Residual          L2-NORM 
          0                 1           2             4    7     1       0.1942619540E-01       4    7    1         0.1018087631E+01      0.2598638617E+01
          0                 2           2             4    7     1      -0.1888620828E-02       4    7    1        -0.1017538308E+00      0.2597729481E+00
          0                 3           2             4    7     1       0.1285110415E-03       4    7    1         0.7117380623E-02      0.1817524947E-01
          0                 4           1             4    7     1      -0.5107155563E-05       4    7    1        -0.2907347823E-03      0.7427648745E-03

    ------------------------------------------------
       NWT REQUIRED            4 OUTER ITERATIONS 
       AND A TOTAL OF          7 INNER ITERATIONS.
    ------------------------------------------------

 NO OUTPUT CONTROL FOR STRESS PERIOD   37   TIME STEP   27
 
 SOLVING FOR HEAD 
                                                   Max.-Head-Change                         Max.-Flux-Residual
  Residual-Control   Outer-Iter.   Inner-Iter.     Column Row Layer    Maximum-Head-Change  Column Row Layer    Maximum-Flux-Residual          L2-NORM 
          0                 1           2             4    7     1       0.1926002511E-01       4    7    1         0.1009344987E+01      0.2579869047E+01
          0                 2           2             4    7     1      -0.1872465614E-02       4    7    1        -0.1008800316E+00      0.2578968258E+00
          0                 3           2             4    7     1       0.1274117610E-03       4    7    1         0.7056260829E-02      0.1804400887E-01
          0                 4           1             4    7     1      -0.5063469244E-05       4    7    1        -0.2882381307E-03      0.7374066503E-03

    ------------------------------------------------
       NWT REQUIRED            4 OUTER ITERATIONS 
       AND A TOTAL OF          7 INNER ITERATIONS.
    ------------------------------------------------

 NO OUTPUT CONTROL FOR STRESS PERIOD   37   TIME STEP   28
 
 SOLVING FOR HEAD 
                                                   Max.-Head-Change                         Max.-Flux-Residual
  Residual-Control   Outer-Iter.   Inner-Iter.     Column Row Layer    Maximum-Head-Change  Column Row Layer    Maximum-Flux-Residual          L2-NORM 
          0                 1           2             4    7     1       0.1909598231E-01       4    7    1         0.1000714663E+01      0.2561344367E+01
          0                 2           2             4    7     1      -0.1856517237E-02       4    7    1        -0.1000174585E+00      0.2560451599E+00
          0                 3           2             4    7     1       0.1263265539E-03       4    7    1         0.6995926237E-02      0.1791448760E-01
          0                 4           1             4    7     1      -0.5020341869E-05       4    7    1        -0.2857735324E-03      0.7321266776E-03

    ------------------------------------------------
       NWT REQUIRED            4 OUTER ITERATIONS 
       AND A TOTAL OF          7 INNER ITERATIONS.
    ------------------------------------------------

 NO OUTPUT CONTROL FOR STRESS PERIOD   37   TIME STEP   29
 
 SOLVING FOR HEAD 
                                                   Max.-Head-Change                         Max.-Flux-Residual
  Residual-Control   Outer-Iter.   Inner-Iter.     Column Row Layer    Maximum-Head-Change  Column Row Layer    Maximum-Flux-Residual          L2-NORM 
          0                 1           2             4    7     1       0.1893388626E-01       4    7    1         0.9921873389E+00      0.2543045927E+01
          0                 2           2             4    7     1      -0.1840758127E-02       4    7    1        -0.9916518004E-01      0.2542161001E+00
          0                 3           2             4    7     1       0.1252542260E-03       4    7    1         0.6936311745E-02      0.1778650400E-01
          0                 4           1             4    7     1      -0.4977726697E-05       4    7    1        -0.2833383608E-03      0.7268769562E-03

    ------------------------------------------------
       NWT REQUIRED            4 OUTER ITERATIONS 
       AND A TOTAL OF          7 INNER ITERATIONS.
    ------------------------------------------------

 NO OUTPUT CONTROL FOR STRESS PERIOD   37   TIME STEP   30



 STREAM LISTING     PERIOD     37   STEP       30

 LAYER ROW COL. STREAM  RCH.  FLOW INTO     FLOW TO   FLOW OUT OF   OVRLND.     DIRECT     STREAM       STREAM     STREAM     STREAM   STREAMBED  STREAMBED
                SEG.NO.  NO.  STRM. RCH.    AQUIFER    STRM. RCH.    RUNOFF     PRECIP       ET          HEAD       DEPTH      WIDTH   CONDCTNC.   GRADIENT

   1    1    1     1     1    1.9000E+01  2.1427E-01   1.8786E+01  0.000E+00  0.000E+00  0.000E+00  1.09413E+03  1.082E+00  1.166E+01  5.249E-02  1.361E+00
   1    2    2     1     2    1.8786E+01  3.3054E-01   1.8455E+01  0.000E+00  0.000E+00  0.000E+00  1.08914E+03  1.077E+00  1.158E+01  8.107E-02  1.359E+00
   1    3    3     1     3    1.8455E+01  2.8064E-01   1.8175E+01  0.000E+00  0.000E+00  0.000E+00  1.08349E+03  1.072E+00  1.149E+01  6.892E-02  1.357E+00
   1    3    4     1     4    1.8175E+01  2.5740E-01   1.7917E+01  0.000E+00  0.000E+00  0.000E+00  1.07848E+03  1.068E+00  1.140E+01  6.328E-02  1.356E+00
   1    4    5     2     1    1.5917E+01  3.0542E-01   1.5612E+01  0.000E+00  0.000E+00  0.000E+00  1.07285E+03  9.157E-01  1.200E+01  7.800E-02  1.305E+00
   1    5    6     2     2    1.5612E+01  2.3438E-01   1.5377E+01  0.000E+00  0.000E+00  0.000E+00  1.06742E+03  9.063E-01  1.200E+01  6.000E-02  1.302E+00
   1    6    6     2     3    1.5377E+01  2.3388E-01   1.5143E+01  0.000E+00  0.000E+00  0.000E+00  1.06269E+03  8.980E-01  1.200E+01  6.000E-02  1.299E+00
   1    7    6     2     4    1.5143E+01  2.3338E-01   1.4910E+01  0.000E+00  0.000E+00  0.000E+00  1.05797E+03  8.897E-01  1.200E+01  6.000E-02  1.297E+00
   1    8    6     2     5    1.4910E+01  2.3289E-01   1.4677E+01  0.000E+00  0.000E+00  0.000E+00  1.05324E+03  8.814E-01  1.200E+01  6.000E-02  1.294E+00
   1    3    5     3     1    2.0000E+00  2.8252E-01   1.7175E+00  0.000E+00  0.000E+00  0.000E+00  1.07555E+03  1.909E+00  9.636E+00  7.227E-02  1.955E+00
   1    3    6     3     2    1.7175E+00  2.4905E-01   1.4684E+00  0.000E+00  0.000E+00  0.000E+00  1.07264E+03  1.727E+00  8.909E+00  6.682E-02  1.864E+00
   1    3    7     3     3    1.4684E+00  1.9718E-01   1.2712E+00  0.000E+00  0.000E+00  0.000E+00  1.06987E+03  1.555E+00  8.218E+00  5.547E-02  1.777E+00
   1    4    8     3     4    1.2712E+00  2.2567E-01   1.0456E+00  0.000E+00  0.000E+00  0.000E+00  1.06682E+03  1.364E+00  7.455E+00  6.709E-02  1.682E+00
   1    5    8     3     5    1.0456E+00  1.5790E-01   8.8768E-01  0.000E+00  0.000E+00  0.000E+00  1.06362E+03  1.164E+00  6.655E+00  4.991E-02  1.582E+00
   1    6    8     3     6    8.8768E-01  5.5980E-02   8.3170E-01  0.000E+00  0.000E+00  0.000E+00  1.06158E+03  1.036E+00  6.145E+00  1.844E-02  1.518E+00
   1    5   10     4     1    1.0000E+01  9.0919E-02   9.9091E+00  0.000E+00  0.000E+00  0.000E+00  1.07836E+03  6.368E-01  1.000E+01  2.500E-02  1.212E+00
   1    5    9     4     2    9.9091E+00  1.8158E-01   9.7275E+00  0.000E+00  0.000E+00  0.000E+00  1.07154E+03  6.315E-01  1.000E+01  5.000E-02  1.211E+00
   1    6    8     4     3    9.7275E+00  1.2689E-01   9.6006E+00  0.000E+00  0.000E+00  0.000E+00  1.06381E+03  6.256E-01  1.000E+01  3.500E-02  1.209E+00
   1    6    8     5     1    1.0432E+01  2.2686E-01   1.0205E+01  0.000E+00  0.000E+00  0.000E+00  1.05868E+03  6.790E-01  1.542E+01  6.166E-02  1.226E+00
   1    7    7     5     2    1.0205E+01  2.7894E-01   9.9265E+00  0.000E+00  0.000E+00  0.000E+00  1.05417E+03  6.732E-01  1.519E+01  7.594E-02  1.224E+00
   1    8    7     5     3    9.9265E+00  1.9221E-01   9.7343E+00  0.000E+00  0.000E+00  0.000E+00  1.04992E+03  6.676E-01  1.497E+01  5.241E-02  1.223E+00
   1    8    6     5     4    9.7343E+00  1.3577E-01   9.5985E+00  0.000E+00  0.000E+00  0.000E+00  1.04691E+03  6.637E-01  1.482E+01  3.706E-02  1.221E+00
   1    9    6     6     1    2.4276E+01  2.5176E-01   2.4024E+01  0.000E+00  0.000E+00  0.000E+00  1.04392E+03  1.196E+00  1.200E+01  6.000E-02  1.399E+00
   1   10    7     6     2    2.4024E+01  2.5131E-01   2.3773E+01  0.000E+00  0.000E+00  0.000E+00  1.03937E+03  1.188E+00  1.200E+01  6.000E-02  1.396E+00
   1   11    7     6     3    2.3773E+01  2.5086E-01   2.3522E+01  0.000E+00  0.000E+00  0.000E+00  1.03482E+03  1.181E+00  1.200E+01  6.000E-02  1.394E+00
   1   12    7     6     4    2.3522E+01  2.5041E-01   2.3271E+01  0.000E+00  0.000E+00  0.000E+00  1.03026E+03  1.173E+00  1.200E+01  6.000E-02  1.391E+00
   1   13    7     6     5    2.3271E+01  8.6924E-03   2.3263E+01  0.000E+00  0.000E+00  0.000E+00  1.02708E+03  1.170E+00  1.200E+01  2.400E-02  1.207E-01
   1   14    9     7     1    1.5000E+02  1.3603E+00   1.4864E+02  0.000E+00  0.000E+00  0.000E+00  1.03987E+03  2.288E+00  5.529E+01  5.593E-01  8.107E-01
   1   13    8     7     2    1.4864E+02  1.9373E+00   1.4670E+02  0.000E+00  0.000E+00  0.000E+00  1.03478E+03  2.279E+00  5.525E+01  6.148E-01  1.050E+00
   1   13    7     7     3    1.4670E+02  1.6596E+00   1.4504E+02  0.000E+00  0.000E+00  0.000E+00  1.02969E+03  2.269E+00  5.521E+01  5.584E-01  9.907E-01
   1   13    6     8     1    1.6831E+02  1.1023E+00   1.6720E+02  0.000E+00  0.000E+00  0.000E+00  1.02481E+03  2.938E+00  4.259E+01  4.340E-01  8.465E-01
   1   13    5     8     2    1.6720E+02  3.4921E-01   1.6685E+02  0.000E+00  0.000E+00  0.000E+00  1.01856E+03  2.933E+00  4.252E+01  4.333E-01  2.686E-01
   1   13    4     8     3    1.6685E+02 -1.8396E+00   1.6869E+02  0.000E+00  0.000E+00  0.000E+00  1.01231E+03  2.938E+00  4.260E+01  4.341E+00 -1.413E-01
   1   13    3     8     4    1.6869E+02 -3.3680E+00   1.7206E+02  0.000E+00  0.000E+00  0.000E+00  1.00608E+03  2.955E+00  4.284E+01  4.366E+00 -2.571E-01
   1   13    2     8     5    1.7206E+02 -2.5112E+00   1.7457E+02  0.000E+00  0.000E+00  0.000E+00  9.99849E+02  2.974E+00  4.312E+01  4.394E+00 -1.905E-01
   1   13    1     8     6    1.7457E+02 -1.9660E+00   1.7654E+02  0.000E+00  0.000E+00  0.000E+00  9.94863E+02  2.988E+00  4.333E+01  2.649E+00 -2.474E-01





UNSATURATED ZONE PACKAGE VOLUMETRIC BUDGET FOR  TIME STEP    30 STRESS PERIOD   37
  ------------------------------------------------------------------------------



     CUMULATIVE VOLUMES      L**3       RATES FOR THIS TIME STEP      L**3/T
     ------------------                 ------------------------

           IN:                                      IN:
           ---                                      ---
        INFILTRATION =  1509147634.2971          INFILTRATION =           0.8475

          OUT:                                     OUT:
          ----                                     ----
              UZF ET =  1291394774.0131                UZF ET =           0.7500
        UZF RECHARGE =   217164448.2304          UZF RECHARGE =           0.0002

            IN - OUT =      588412.0536              IN - OUT =       9.7256E-02

          STORAGE:                                 STORAGE:
          --------                                 --------
      STORAGE CHANGE =      588430.2539        STORAGE CHANGE =       9.7256E-02

 PERCENT DISCREPANCY IS DIFFERENCE BETWEEN IN-OUT MINUS CHANGE IN STORAGE
 DIVIDED BY THE AVERAGE OF IN AND OUT TIMES 100

 PERCENT DISCREPANCY =           0.00     PERCENT DISCREPANCY =           0.00






1
  VOLUMETRIC BUDGET FOR AGRICULTURAL FIELDS AT  END OF TIME STEP   30, STRESS PERIOD  37
  ------------------------------------------------------------------------------

     CUMULATIVE VOLUMES      L**3       RATES FOR THIS TIME STEP      L**3/T
     ------------------                 ------------------------

           IN:                                      IN:
           ---                                      ---
               AG WELLS  =  1428831872.0000                 AG WELLS  =           0.0000
      DIVERSION SEGMENTS =           0.0000        DIVERSION SEGMENTS =           0.0000
           GW IRRIGATION =           0.0000             GW IRRIGATION =           0.0000
           SW IRRIGATION =           0.0000             SW IRRIGATION =           0.0000
        SYSTEM LOSSES GW =           0.0000          SYSTEM LOSSES GW =           0.0000
        SYSTEM LOSSES SW =           0.0000          SYSTEM LOSSES SW =           0.0000

                TOTAL IN =  1428831872.0000                  TOTAL IN =           0.0000

          OUT:                                     OUT:
          ----                                     ----
               AG WELLS  =           0.0000                 AG WELLS  =           0.0000
      DIVERSION SEGMENTS =           0.0000        DIVERSION SEGMENTS =           0.0000
           GW IRRIGATION =  1428831872.0000             GW IRRIGATION =           0.0000
           SW IRRIGATION =           0.0000             SW IRRIGATION =           0.0000
        SYSTEM LOSSES GW =           0.0000          SYSTEM LOSSES GW =           0.0000
        SYSTEM LOSSES SW =           0.0000          SYSTEM LOSSES SW =           0.0000

               TOTAL OUT =  1428831872.0000                 TOTAL OUT =           0.0000

                IN - OUT =           0.0000                  IN - OUT =           0.0000

     PERCENT DISCREPANCY =           0.00         PERCENT DISCREPANCY =           0.00



1
  VOLUMETRIC BUDGET FOR ENTIRE MODEL AT END OF TIME STEP   30, STRESS PERIOD  37
  ------------------------------------------------------------------------------

     CUMULATIVE VOLUMES      L**3       RATES FOR THIS TIME STEP      L**3/T
     ------------------                 ------------------------

           IN:                                      IN:
           ---                                      ---
             STORAGE     =  1840576128.0000               STORAGE     =           6.8214
       CONSTANT HEAD     =           0.0000         CONSTANT HEAD     =           0.0000
     HEAD DEP BOUNDS     =    27090414.0000       HEAD DEP BOUNDS     =           0.2874
      STREAM LEAKAGE     =  1161815552.0000        STREAM LEAKAGE     =          12.1460
        UZF RECHARGE     =   217164368.0000          UZF RECHARGE     =       2.4358E-04
               GW ET     =           0.0000                 GW ET     =           0.0000
     SURFACE LEAKAGE     =           0.0000       SURFACE LEAKAGE     =           0.0000
           AG WELLS      =           0.0000             AG WELLS      =           0.0000

                TOTAL IN =  3246646272.0000                  TOTAL IN =          19.2551

          OUT:                                     OUT:
          ----                                     ----
             STORAGE     =   802619840.0000               STORAGE     =           9.2813
       CONSTANT HEAD     =           0.0000         CONSTANT HEAD     =           0.0000
     HEAD DEP BOUNDS     =    27712502.0000       HEAD DEP BOUNDS     =           0.2890
      STREAM LEAKAGE     =   969972032.0000        STREAM LEAKAGE     =           9.6847
        UZF RECHARGE     =           0.0000          UZF RECHARGE     =           0.0000
               GW ET     =    17516202.0000                 GW ET     =           0.0000
     SURFACE LEAKAGE     =           0.0000       SURFACE LEAKAGE     =           0.0000
           AG WELLS      =  1428831872.0000             AG WELLS      =           0.0000

               TOTAL OUT =  3246652416.0000                 TOTAL OUT =          19.2551

                IN - OUT =       -6144.0000                  IN - OUT =       1.5259E-05

     PERCENT DISCREPANCY =          -0.00         PERCENT DISCREPANCY =           0.00






         TIME SUMMARY AT END OF TIME STEP   30 IN STRESS PERIOD   37
                    SECONDS     MINUTES      HOURS       DAYS        YEARS
                    -----------------------------------------------------------
   TIME STEP LENGTH  87667.      1461.1      24.352      1.0147     2.77799E-03
 STRESS PERIOD TIME 2.63000E+06  43833.      730.56      30.440     8.33397E-02
         TOTAL TIME 9.47660E+07 1.57943E+06  26324.      1096.8      3.0030    
1
1
                            STRESS PERIOD NO.   38, LENGTH =   2630000.    
                            -----------------------------------------------

                              NUMBER OF TIME STEPS =    30

                               MULTIPLIER FOR DELT =     1.000

                            INITIAL TIME STEP SIZE =   87666.66    

 REUSING NON-PARAMETER GHB CELLS FROM LAST STRESS PERIOD

      2 GHB CELLS

 REUSING STREAM SEGMENT DATA FROM LAST STRESS PERIOD



            AREAL INFILTRATION RATE
 READING ON UNIT   19 WITH FORMAT: (FREE)              

            1           2           3           4           5           6           7           8           9          10
 ........................................................................................................................
   1   1.0000E-10  2.0000E-10   0.000       0.000       0.000       0.000       0.000       0.000       0.000       0.000    
   2   2.0000E-10  1.0000E-10  2.0000E-10   0.000       0.000      8.0000E-10  8.0000E-10  5.0000E-10   0.000       0.000    
   3    0.000      5.0000E-10  1.0000E-10  1.0000E-10  8.0000E-10  8.0000E-10  5.0000E-10  5.0000E-10   0.000       0.000    
   4   8.0000E-10  5.0000E-10  1.0000E-10  1.0000E-10  1.0000E-10  1.0000E-10  1.0000E-10  1.0000E-10  2.0000E-10   0.000    
   5   8.0000E-10  5.0000E-10  1.0000E-10  1.0000E-10  1.0000E-10  1.0000E-10  1.0000E-10  1.0000E-10  1.0000E-10  1.0000E-10
   6   8.0000E-10  5.0000E-10  5.0000E-10  2.0000E-10  2.0000E-10  1.0000E-10  1.0000E-10  1.0000E-10  1.0000E-10  5.0000E-10
   7   8.0000E-10  5.0000E-10  5.0000E-10  2.0000E-10  2.0000E-10  1.0000E-10  1.0000E-10  2.0000E-10  2.0000E-10   0.000    
   8    0.000      5.0000E-10  5.0000E-10  2.0000E-10  2.0000E-10  1.0000E-10  1.0000E-10  2.0000E-10  5.0000E-10   0.000    
   9    0.000      5.0000E-10  5.0000E-10  2.0000E-10  2.0000E-10  1.0000E-10  1.0000E-10  2.0000E-10  5.0000E-10   0.000    
  10    0.000      5.0000E-10  5.0000E-10  2.0000E-10  2.0000E-10  1.0000E-10  1.0000E-10  2.0000E-10  5.0000E-10  8.0000E-10
  11    0.000      1.0000E-10  1.0000E-10  1.0000E-10  1.0000E-10  1.0000E-10  1.0000E-10  2.0000E-10  5.0000E-10   0.000    
  12   1.0000E-10  1.0000E-10  1.0000E-10  1.0000E-10  1.0000E-10  1.0000E-10  1.0000E-10  1.0000E-10  2.0000E-10   0.000    
  13   1.0000E-10  1.0000E-10  2.0000E-10  2.0000E-10  2.0000E-10  2.0000E-10  2.0000E-10  1.0000E-10  1.0000E-10   0.000    
  14    0.000      2.0000E-10  5.0000E-10  5.0000E-10  5.0000E-10  5.0000E-10  5.0000E-10  2.0000E-10  1.0000E-10   0.000    
  15    0.000       0.000      8.0000E-10  8.0000E-10  8.0000E-10  8.0000E-10   0.000       0.000       0.000       0.000    

                  ET RATE =  5.000000E-10

 USING ET EXTINCTION DEPTH FROM PREVIOUS STRESS PERIOD. CURRENT PERIOD IS:      38

 USING EXTINCTION WATER CONTENT FROM PREVIOUS STRESS PERIOD. CURRENT PERIOD IS:      38

 USING AIR ENTRY PRESSURE FROM PREVIOUS STRESS PERIOD. CURRENT PERIOD IS:      38

 USING ROOT PRESSURE HEAD FROM PREVIOUS STRESS PERIOD. CURRENT PERIOD IS:      38

 USING ROOT ACTIVITY FROM PREVIOUS STRESS PERIOD. CURRENT PERIOD IS:      38

 PROCESSING AG STRESS PERIOD DATA

 READING AG STRESS PERIOD DATA

 READING IRRIGATION WELL

 END PROCESSING AG STRESS PERIOD DATA OPTIONS
 
 SOLVING FOR HEAD 
                                                   Max.-Head-Change                         Max.-Flux-Residual
  Residual-Control   Outer-Iter.   Inner-Iter.     Column Row Layer    Maximum-Head-Change  Column Row Layer    Maximum-Flux-Residual          L2-NORM 
          0                 1           2             4    7     1       0.1877383838E-01       4    7    1         0.9837682568E+00      0.2524976908E+01
          0                 2           2             4    7     1      -0.1825198143E-02       4    7    1        -0.9832372010E-01      0.2524099824E+00
          0                 3           2             4    7     1       0.1241954474E-03       4    7    1         0.6877453982E-02      0.1766014345E-01
          0                 4           1             4    7     1      -0.4935649746E-05       4    7    1        -0.2809340863E-03      0.7217064720E-03

    ------------------------------------------------
       NWT REQUIRED            4 OUTER ITERATIONS 
       AND A TOTAL OF          7 INNER ITERATIONS.
    ------------------------------------------------

 NO OUTPUT CONTROL FOR STRESS PERIOD   38   TIME STEP    1
 
 SOLVING FOR HEAD 
                                                   Max.-Head-Change                         Max.-Flux-Residual
  Residual-Control   Outer-Iter.   Inner-Iter.     Column Row Layer    Maximum-Head-Change  Column Row Layer    Maximum-Flux-Residual          L2-NORM 
          0                 1           2             4    7     1       0.1861579581E-01       4    7    1         0.9754553687E+00      0.2507131141E+01
          0                 2           2             4    7     1      -0.1811126222E-02       4    7    1        -0.9758495132E-01      0.2506501939E+00
          0                 3           2             4    7     1       0.1232379735E-03       4    7    1         0.6825780093E-02      0.1753702329E-01
          0                 4           1             4    7     1      -0.4897602032E-05       4    7    1        -0.2788233585E-03      0.7166882663E-03

    ------------------------------------------------
       NWT REQUIRED            4 OUTER ITERATIONS 
       AND A TOTAL OF          7 INNER ITERATIONS.
    ------------------------------------------------

 NO OUTPUT CONTROL FOR STRESS PERIOD   38   TIME STEP    2
 
 SOLVING FOR HEAD 
                                                   Max.-Head-Change                         Max.-Flux-Residual
  Residual-Control   Outer-Iter.   Inner-Iter.     Column Row Layer    Maximum-Head-Change  Column Row Layer    Maximum-Flux-Residual          L2-NORM 
          0                 1           2             4    7     1       0.1845497787E-01       4    7    1         0.9671702217E+00      0.2489490495E+01
          0                 2           2             4    7     1      -0.1794199142E-02       4    7    1        -0.9666483425E-01      0.2488628923E+00
          0                 3           2             4    7     1       0.1220861676E-03       4    7    1         0.6761420242E-02      0.1741200676E-01
          0                 4           1             4    7     1      -0.4851827873E-05       4    7    1        -0.2761943151E-03      0.7115970605E-03

    ------------------------------------------------
       NWT REQUIRED            4 OUTER ITERATIONS 
       AND A TOTAL OF          7 INNER ITERATIONS.
    ------------------------------------------------

 NO OUTPUT CONTROL FOR STRESS PERIOD   38   TIME STEP    3
 
 SOLVING FOR HEAD 
                                                   Max.-Head-Change                         Max.-Flux-Residual
  Residual-Control   Outer-Iter.   Inner-Iter.     Column Row Layer    Maximum-Head-Change  Column Row Layer    Maximum-Flux-Residual          L2-NORM 
          0                 1           2             4    7     1       0.1829768305E-01       4    7    1         0.9588862817E+00      0.2472041072E+01
          0                 2           2             4    7     1      -0.1778906788E-02       4    7    1        -0.9583687975E-01      0.2471187135E+00
          0                 3           2             4    7     1       0.1210455993E-03       4    7    1         0.6703507094E-02      0.1728998129E-01
          0                 4           1             4    7     1      -0.4810474500E-05       4    7    1        -0.2738286416E-03      0.7065938998E-03

    ------------------------------------------------
       NWT REQUIRED            4 OUTER ITERATIONS 
       AND A TOTAL OF          7 INNER ITERATIONS.
    ------------------------------------------------

 NO OUTPUT CONTROL FOR STRESS PERIOD   38   TIME STEP    4
 
 SOLVING FOR HEAD 
                                                   Max.-Head-Change                         Max.-Flux-Residual
  Residual-Control   Outer-Iter.   Inner-Iter.     Column Row Layer    Maximum-Head-Change  Column Row Layer    Maximum-Flux-Residual          L2-NORM 
          0                 1           2             4    7     1       0.1814253015E-01       4    7    1         0.9507161328E+00      0.2454808721E+01
          0                 2           2             4    7     1      -0.1763822676E-02       4    7    1        -0.9502029849E-01      0.2453962256E+00
          0                 3           2             4    7     1       0.1200192012E-03       4    7    1         0.6646389506E-02      0.1716948246E-01
          0                 4           1             4    7     1      -0.4769684215E-05       4    7    1        -0.2714954489E-03      0.7016630054E-03

    ------------------------------------------------
       NWT REQUIRED            4 OUTER ITERATIONS 
       AND A TOTAL OF          7 INNER ITERATIONS.
    ------------------------------------------------

 NO OUTPUT CONTROL FOR STRESS PERIOD   38   TIME STEP    5
 
 SOLVING FOR HEAD 
                                                   Max.-Head-Change                         Max.-Flux-Residual
  Residual-Control   Outer-Iter.   Inner-Iter.     Column Row Layer    Maximum-Head-Change  Column Row Layer    Maximum-Flux-Residual          L2-NORM 
          0                 1           2             4    7     1       0.1798933276E-01       4    7    1         0.9426497302E+00      0.2437785813E+01
          0                 2           2             4    7     1      -0.1748928683E-02       4    7    1        -0.9421408651E-01      0.2436946892E+00
          0                 3           2             4    7     1       0.1190057388E-03       4    7    1         0.6589997183E-02      0.1705045490E-01
          0                 4           1             4    7     1      -0.4729407860E-05       4    7    1        -0.2691918653E-03      0.6968156733E-03

    ------------------------------------------------
       NWT REQUIRED            4 OUTER ITERATIONS 
       AND A TOTAL OF          7 INNER ITERATIONS.
    ------------------------------------------------

 NO OUTPUT CONTROL FOR STRESS PERIOD   38   TIME STEP    6
 
 SOLVING FOR HEAD 
                                                   Max.-Head-Change                         Max.-Flux-Residual
  Residual-Control   Outer-Iter.   Inner-Iter.     Column Row Layer    Maximum-Head-Change  Column Row Layer    Maximum-Flux-Residual          L2-NORM 
          0                 1           2             4    7     1       0.1783818650E-01       4    7    1         0.9346920260E+00      0.2420976195E+01
          0                 2           2             4    7     1      -0.1734234105E-02       4    7    1        -0.9341873872E-01      0.2420144596E+00
          0                 3           2             4    7     1       0.1180058466E-03       4    7    1         0.6534364812E-02      0.1693291406E-01
          0                 4           1             4    7     1      -0.4689671224E-05       4    7    1        -0.2669193698E-03      0.6920219592E-03

    ------------------------------------------------
       NWT REQUIRED            4 OUTER ITERATIONS 
       AND A TOTAL OF          7 INNER ITERATIONS.
    ------------------------------------------------

 NO OUTPUT CONTROL FOR STRESS PERIOD   38   TIME STEP    7
 
 SOLVING FOR HEAD 
                                                   Max.-Head-Change                         Max.-Flux-Residual
  Residual-Control   Outer-Iter.   Inner-Iter.     Column Row Layer    Maximum-Head-Change  Column Row Layer    Maximum-Flux-Residual          L2-NORM 
          0                 1           2             4    7     1       0.1768903955E-01       4    7    1         0.9268406692E+00      0.2404370352E+01
          0                 2           2             4    7     1      -0.1719733904E-02       4    7    1        -0.9263402022E-01      0.2403546110E+00
          0                 3           2             4    7     1       0.1170191804E-03       4    7    1         0.6479475913E-02      0.1681679550E-01
          0                 4           1             4    7     1      -0.4650460029E-05       4    7    1        -0.2646772275E-03      0.6872681077E-03

    ------------------------------------------------
       NWT REQUIRED            4 OUTER ITERATIONS 
       AND A TOTAL OF          7 INNER ITERATIONS.
    ------------------------------------------------

 NO OUTPUT CONTROL FOR STRESS PERIOD   38   TIME STEP    8
 
 SOLVING FOR HEAD 
                                                   Max.-Head-Change                         Max.-Flux-Residual
  Residual-Control   Outer-Iter.   Inner-Iter.     Column Row Layer    Maximum-Head-Change  Column Row Layer    Maximum-Flux-Residual          L2-NORM 
          0                 1           2             4    7     1       0.1754171163E-01       4    7    1         0.9190856637E+00      0.2387961283E+01
          0                 2           2             4    7     1      -0.1705410552E-02       4    7    1        -0.9185893185E-01      0.2387144337E+00
          0                 3           1             4    7     1       0.1160445516E-03       4    7    1         0.6425260626E-02      0.1670205710E-01
          0                 4           1             4    7     1      -0.4611730759E-05       4    7    1        -0.2624625947E-03      0.6825812007E-03

    ------------------------------------------------
       NWT REQUIRED            4 OUTER ITERATIONS 
       AND A TOTAL OF          6 INNER ITERATIONS.
    ------------------------------------------------

 NO OUTPUT CONTROL FOR STRESS PERIOD   38   TIME STEP    9
 
 SOLVING FOR HEAD 
                                                   Max.-Head-Change                         Max.-Flux-Residual
  Residual-Control   Outer-Iter.   Inner-Iter.     Column Row Layer    Maximum-Head-Change  Column Row Layer    Maximum-Flux-Residual          L2-NORM 
          0                 1           2             4    7     1       0.1739630282E-01       4    7    1         0.9114322805E+00      0.2371757316E+01
          0                 2           2             4    7     1      -0.1691273780E-02       4    7    1        -0.9109400042E-01      0.2370947171E+00
          0                 3           1             4    7     1       0.1150826149E-03       4    7    1         0.6371755791E-02      0.1658874284E-01
          0                 4           1             4    7     1      -0.4573502294E-05       4    7    1        -0.2602769866E-03      0.6779520136E-03

    ------------------------------------------------
       NWT REQUIRED            4 OUTER ITERATIONS 
       AND A TOTAL OF          6 INNER ITERATIONS.
    ------------------------------------------------

 NO OUTPUT CONTROL FOR STRESS PERIOD   38   TIME STEP   10
 
 SOLVING FOR HEAD 
                                                   Max.-Head-Change                         Max.-Flux-Residual
  Residual-Control   Outer-Iter.   Inner-Iter.     Column Row Layer    Maximum-Head-Change  Column Row Layer    Maximum-Flux-Residual          L2-NORM 
          0                 1           2             4    7     1       0.1725290272E-01       4    7    1         0.9038857100E+00      0.2355747020E+01
          0                 2           2             4    7     1      -0.1677332299E-02       4    7    1        -0.9033974478E-01      0.2354944460E+00
          0                 3           1             4    7     1       0.1141339670E-03       4    7    1         0.6318997716E-02      0.1647680228E-01
          0                 4           1             4    7     1      -0.4535801919E-05       4    7    1        -0.2581218807E-03      0.6733732621E-03

    ------------------------------------------------
       NWT REQUIRED            4 OUTER ITERATIONS 
       AND A TOTAL OF          6 INNER ITERATIONS.
    ------------------------------------------------

 NO OUTPUT CONTROL FOR STRESS PERIOD   38   TIME STEP   11
 
 SOLVING FOR HEAD 
                                                   Max.-Head-Change                         Max.-Flux-Residual
  Residual-Control   Outer-Iter.   Inner-Iter.     Column Row Layer    Maximum-Head-Change  Column Row Layer    Maximum-Flux-Residual          L2-NORM 
          0                 1           2             4    7     1       0.1711119745E-01       4    7    1         0.8964286680E+00      0.2339932299E+01
          0                 2           2             4    7     1      -0.1663555592E-02       4    7    1        -0.8959443730E-01      0.2339136490E+00
          0                 3           1             4    7     1       0.1131965310E-03       4    7    1         0.6266865530E-02      0.1636618778E-01
          0                 4           1             4    7     1      -0.4498546858E-05       4    7    1        -0.2559923360E-03      0.6688511046E-03

    ------------------------------------------------
       NWT REQUIRED            4 OUTER ITERATIONS 
       AND A TOTAL OF          6 INNER ITERATIONS.
    ------------------------------------------------

 NO OUTPUT CONTROL FOR STRESS PERIOD   38   TIME STEP   12
 
 SOLVING FOR HEAD 
                                                   Max.-Head-Change                         Max.-Flux-Residual
  Residual-Control   Outer-Iter.   Inner-Iter.     Column Row Layer    Maximum-Head-Change  Column Row Layer    Maximum-Flux-Residual          L2-NORM 
          0                 1           2             4    7     1       0.1697115456E-01       4    7    1         0.8890594995E+00      0.2324296137E+01
          0                 2           2             4    7     1      -0.1649940504E-02       4    7    1        -0.8885791260E-01      0.2323507235E+00
          0                 3           1             4    7     1       0.1122700927E-03       4    7    1         0.6215347665E-02      0.1625687927E-01
          0                 4           1             4    7     1      -0.4461729512E-05       4    7    1        -0.2538879216E-03      0.6643989924E-03

    ------------------------------------------------
       NWT REQUIRED            4 OUTER ITERATIONS 
       AND A TOTAL OF          6 INNER ITERATIONS.
    ------------------------------------------------

 NO OUTPUT CONTROL FOR STRESS PERIOD   38   TIME STEP   13
 
 SOLVING FOR HEAD 
                                                   Max.-Head-Change                         Max.-Flux-Residual
  Residual-Control   Outer-Iter.   Inner-Iter.     Column Row Layer    Maximum-Head-Change  Column Row Layer    Maximum-Flux-Residual          L2-NORM 
          0                 1           2             4    7     1       0.1683300923E-01       4    7    1         0.8817911430E+00      0.2308857857E+01
          0                 2           2             4    7     1      -0.1636509901E-02       4    7    1        -0.8813146389E-01      0.2308075349E+00
          0                 3           1             4    7     1       0.1113562074E-03       4    7    1         0.6164534611E-02      0.1614887474E-01
          0                 4           1             4    7     1      -0.4425410553E-05       4    7    1        -0.2518122596E-03      0.6599897600E-03

    ------------------------------------------------
       NWT REQUIRED            4 OUTER ITERATIONS 
       AND A TOTAL OF          6 INNER ITERATIONS.
    ------------------------------------------------

 NO OUTPUT CONTROL FOR STRESS PERIOD   38   TIME STEP   14
 
 SOLVING FOR HEAD 
                                                   Max.-Head-Change                         Max.-Flux-Residual
  Residual-Control   Outer-Iter.   Inner-Iter.     Column Row Layer    Maximum-Head-Change  Column Row Layer    Maximum-Flux-Residual          L2-NORM 
          0                 1           2             4    7     1       0.1669658640E-01       4    7    1         0.8746138614E+00      0.2293599419E+01
          0                 2           2             4    7     1      -0.1623246761E-02       4    7    1        -0.8741411792E-01      0.2292824183E+00
          0                 3           1             4    7     1       0.1104537170E-03       4    7    1         0.6114358247E-02      0.1604222734E-01
          0                 4           1             4    7     1      -0.4389544737E-05       4    7    1        -0.2497626128E-03      0.6556182625E-03

    ------------------------------------------------
       NWT REQUIRED            4 OUTER ITERATIONS 
       AND A TOTAL OF          6 INNER ITERATIONS.
    ------------------------------------------------

 NO OUTPUT CONTROL FOR STRESS PERIOD   38   TIME STEP   15
 
 SOLVING FOR HEAD 
                                                   Max.-Head-Change                         Max.-Flux-Residual
  Residual-Control   Outer-Iter.   Inner-Iter.     Column Row Layer    Maximum-Head-Change  Column Row Layer    Maximum-Flux-Residual          L2-NORM 
          0                 1           2             4    7     1       0.1656184907E-01       4    7    1         0.8675258881E+00      0.2278521145E+01
          0                 2           2             4    7     1      -0.1610147489E-02       4    7    1        -0.8670569815E-01      0.2277752217E+00
          0                 3           1             4    7     1       0.1095623771E-03       4    7    1         0.6064806269E-02      0.1593673424E-01
          0                 4           1             4    7     1      -0.4354121701E-05       4    7    1        -0.2477384655E-03      0.6513098577E-03

    ------------------------------------------------
       NWT REQUIRED            4 OUTER ITERATIONS 
       AND A TOTAL OF          6 INNER ITERATIONS.
    ------------------------------------------------

 NO OUTPUT CONTROL FOR STRESS PERIOD   38   TIME STEP   16
 
 SOLVING FOR HEAD 
                                                   Max.-Head-Change                         Max.-Flux-Residual
  Residual-Control   Outer-Iter.   Inner-Iter.     Column Row Layer    Maximum-Head-Change  Column Row Layer    Maximum-Flux-Residual          L2-NORM 
          0                 1           2             4    7     1       0.1642863262E-01       4    7    1         0.8605179939E+00      0.2263617957E+01
          0                 2           2             4    7     1      -0.1597196080E-02       4    7    1        -0.8600528209E-01      0.2262855903E+00
          0                 3           1             4    7     1       0.1086810989E-03       4    7    1         0.6015814128E-02      0.1583255660E-01
          0                 4           1             4    7     1      -0.4319098849E-05       4    7    1        -0.2457372125E-03      0.6470462903E-03

    ------------------------------------------------
       NWT REQUIRED            4 OUTER ITERATIONS 
       AND A TOTAL OF          6 INNER ITERATIONS.
    ------------------------------------------------

 NO OUTPUT CONTROL FOR STRESS PERIOD   38   TIME STEP   17
 
 SOLVING FOR HEAD 
                                                   Max.-Head-Change                         Max.-Flux-Residual
  Residual-Control   Outer-Iter.   Inner-Iter.     Column Row Layer    Maximum-Head-Change  Column Row Layer    Maximum-Flux-Residual          L2-NORM 
          0                 1           2             4    7     1       0.1629717556E-01       4    7    1         0.8536035770E+00      0.2248890035E+01
          0                 2           2             4    7     1      -0.1584415722E-02       4    7    1        -0.8531420891E-01      0.2248134654E+00
          0                 3           1             4    7     1       0.1078114600E-03       4    7    1         0.5967475500E-02      0.1572959018E-01
          0                 4           1             4    7     1      -0.4284538580E-05       4    7    1        -0.2437626517E-03      0.6428409003E-03

    ------------------------------------------------
       NWT REQUIRED            4 OUTER ITERATIONS 
       AND A TOTAL OF          6 INNER ITERATIONS.
    ------------------------------------------------

 NO OUTPUT CONTROL FOR STRESS PERIOD   38   TIME STEP   18
 
 SOLVING FOR HEAD 
                                                   Max.-Head-Change                         Max.-Flux-Residual
  Residual-Control   Outer-Iter.   Inner-Iter.     Column Row Layer    Maximum-Head-Change  Column Row Layer    Maximum-Flux-Residual          L2-NORM 
          0                 1           2             4    7     1       0.1616730842E-01       4    7    1         0.8467730708E+00      0.2234339296E+01
          0                 2           2             4    7     1      -0.1571789938E-02       4    7    1        -0.8463152242E-01      0.2233590418E+00
          0                 3           1             4    7     1       0.1069523381E-03       4    7    1         0.5919723474E-02      0.1562783161E-01
          0                 4           1             4    7     1      -0.4250395878E-05       4    7    1        -0.2418120193E-03      0.6386820025E-03

    ------------------------------------------------
       NWT REQUIRED            4 OUTER ITERATIONS 
       AND A TOTAL OF          6 INNER ITERATIONS.
    ------------------------------------------------

 NO OUTPUT CONTROL FOR STRESS PERIOD   38   TIME STEP   19
 
 SOLVING FOR HEAD 
                                                   Max.-Head-Change                         Max.-Flux-Residual
  Residual-Control   Outer-Iter.   Inner-Iter.     Column Row Layer    Maximum-Head-Change  Column Row Layer    Maximum-Flux-Residual          L2-NORM 
          0                 1           2             4    7     1       0.1603900000E-01       4    7    1         0.8400249986E+00      0.2219952489E+01
          0                 2           2             4    7     1      -0.1559315695E-02       4    7    1        -0.8395707503E-01      0.2219210051E+00
          0                 3           1             4    7     1       0.1061035287E-03       4    7    1         0.5872547783E-02      0.1552725321E-01
          0                 4           1             4    7     1      -0.4216663261E-05       4    7    1        -0.2398849585E-03      0.6345799765E-03

    ------------------------------------------------
       NWT REQUIRED            4 OUTER ITERATIONS 
       AND A TOTAL OF          6 INNER ITERATIONS.
    ------------------------------------------------

 NO OUTPUT CONTROL FOR STRESS PERIOD   38   TIME STEP   20
 
 SOLVING FOR HEAD 
                                                   Max.-Head-Change                         Max.-Flux-Residual
  Residual-Control   Outer-Iter.   Inner-Iter.     Column Row Layer    Maximum-Head-Change  Column Row Layer    Maximum-Flux-Residual          L2-NORM 
          0                 1           2             4    7     1       0.1591208551E-01       4    7    1         0.8333504309E+00      0.2205736497E+01
          0                 2           2             4    7     1      -0.1546976972E-02       4    7    1        -0.8328997425E-01      0.2205000294E+00
          0                 3           1             4    7     1       0.1052639405E-03       4    7    1         0.5825885950E-02      0.1542782079E-01
          0                 4           1             4    7     1      -0.4183297095E-05       4    7    1        -0.2379788773E-03      0.6305124294E-03

    ------------------------------------------------
       NWT REQUIRED            4 OUTER ITERATIONS 
       AND A TOTAL OF          6 INNER ITERATIONS.
    ------------------------------------------------

 NO OUTPUT CONTROL FOR STRESS PERIOD   38   TIME STEP   21
 
 SOLVING FOR HEAD 
                                                   Max.-Head-Change                         Max.-Flux-Residual
  Residual-Control   Outer-Iter.   Inner-Iter.     Column Row Layer    Maximum-Head-Change  Column Row Layer    Maximum-Flux-Residual          L2-NORM 
          0                 1           2             4    7     1       0.1578681420E-01       4    7    1         0.8267627606E+00      0.2191685531E+01
          0                 2           2             4    7     1      -0.1534798001E-02       4    7    1        -0.8263155865E-01      0.2190955556E+00
          0                 3           1             4    7     1       0.1044352226E-03       4    7    1         0.5779831628E-02      0.1532957853E-01
          0                 4           1             4    7     1      -0.4150362888E-05       4    7    1        -0.2360976157E-03      0.6264998897E-03

    ------------------------------------------------
       NWT REQUIRED            4 OUTER ITERATIONS 
       AND A TOTAL OF          6 INNER ITERATIONS.
    ------------------------------------------------

 NO OUTPUT CONTROL FOR STRESS PERIOD   38   TIME STEP   22
 
 SOLVING FOR HEAD 
                                                   Max.-Head-Change                         Max.-Flux-Residual
  Residual-Control   Outer-Iter.   Inner-Iter.     Column Row Layer    Maximum-Head-Change  Column Row Layer    Maximum-Flux-Residual          L2-NORM 
          0                 1           2             4    7     1       0.1566314630E-01       4    7    1         0.8202602865E+00      0.2177793782E+01
          0                 2           2             4    7     1      -0.1522774917E-02       4    7    1        -0.8198165826E-01      0.2177070045E+00
          0                 3           1             4    7     1       0.1036171122E-03       4    7    1         0.5734372927E-02      0.1523245231E-01
          0                 4           1             4    7     1      -0.4117850278E-05       4    7    1        -0.2342406860E-03      0.6225305141E-03

    ------------------------------------------------
       NWT REQUIRED            4 OUTER ITERATIONS 
       AND A TOTAL OF          6 INNER ITERATIONS.
    ------------------------------------------------

 NO OUTPUT CONTROL FOR STRESS PERIOD   38   TIME STEP   23
 
 SOLVING FOR HEAD 
                                                   Max.-Head-Change                         Max.-Flux-Residual
  Residual-Control   Outer-Iter.   Inner-Iter.     Column Row Layer    Maximum-Head-Change  Column Row Layer    Maximum-Flux-Residual          L2-NORM 
          0                 1           2             4    7     1       0.1554078624E-01       4    7    1         0.8138263215E+00      0.2164065402E+01
          0                 2           2             4    7     1      -0.1510878983E-02       4    7    1        -0.8133860515E-01      0.2163348081E+00
          0                 3           1             4    7     1       0.1028076533E-03       4    7    1         0.5689393157E-02      0.1513646258E-01
          0                 4           1             4    7     1      -0.4085681439E-05       4    7    1        -0.2324033144E-03      0.6186083948E-03

    ------------------------------------------------
       NWT REQUIRED            4 OUTER ITERATIONS 
       AND A TOTAL OF          6 INNER ITERATIONS.
    ------------------------------------------------

 NO OUTPUT CONTROL FOR STRESS PERIOD   38   TIME STEP   24
 
 SOLVING FOR HEAD 
                                                   Max.-Head-Change                         Max.-Flux-Residual
  Residual-Control   Outer-Iter.   Inner-Iter.     Column Row Layer    Maximum-Head-Change  Column Row Layer    Maximum-Flux-Residual          L2-NORM 
          0                 1           2             4    7     1       0.1541984755E-01       4    7    1         0.8074674779E+00      0.2150487544E+01
          0                 2           2             4    7     1      -0.1499121236E-02       4    7    1        -0.8070306027E-01      0.2149776082E+00
          0                 3           1             4    7     1       0.1020075977E-03       4    7    1         0.5644938582E-02      0.1504151691E-01
          0                 4           1             4    7     1      -0.4053886419E-05       4    7    1        -0.2305874013E-03      0.6148175041E-03

    ------------------------------------------------
       NWT REQUIRED            4 OUTER ITERATIONS 
       AND A TOTAL OF          6 INNER ITERATIONS.
    ------------------------------------------------

 NO OUTPUT CONTROL FOR STRESS PERIOD   38   TIME STEP   25
 
 SOLVING FOR HEAD 
                                                   Max.-Head-Change                         Max.-Flux-Residual
  Residual-Control   Outer-Iter.   Inner-Iter.     Column Row Layer    Maximum-Head-Change  Column Row Layer    Maximum-Flux-Residual          L2-NORM 
          0                 1           2             4    7     1       0.1530043463E-01       4    7    1         0.8011896433E+00      0.2137066345E+01
          0                 2           2             4    7     1      -0.1487511827E-02       4    7    1        -0.8007561205E-01      0.2136360716E+00
          0                 3           1             4    7     1       0.1012176358E-03       4    7    1         0.5601050351E-02      0.1494765001E-01
          0                 4           1             4    7     1      -0.4022492504E-05       4    7    1        -0.2287946238E-03      0.6108812876E-03

    ------------------------------------------------
       NWT REQUIRED            4 OUTER ITERATIONS 
       AND A TOTAL OF          6 INNER ITERATIONS.
    ------------------------------------------------

 NO OUTPUT CONTROL FOR STRESS PERIOD   38   TIME STEP   26
 
 SOLVING FOR HEAD 
                                                   Max.-Head-Change                         Max.-Flux-Residual
  Residual-Control   Outer-Iter.   Inner-Iter.     Column Row Layer    Maximum-Head-Change  Column Row Layer    Maximum-Flux-Residual          L2-NORM 
          0                 1           2             4    7     1       0.1518238852E-01       4    7    1         0.7949836040E+00      0.2123796998E+01
          0                 2           2             4    7     1      -0.1476035301E-02       4    7    1        -0.7945533956E-01      0.2123097521E+00
          0                 3           1             4    7     1       0.1004367159E-03       4    7    1         0.5557664032E-02      0.1485487546E-01
          0                 4           1             4    7     1      -0.3991457902E-05       4    7    1        -0.2270223606E-03      0.6071085635E-03

    ------------------------------------------------
       NWT REQUIRED            4 OUTER ITERATIONS 
       AND A TOTAL OF          6 INNER ITERATIONS.
    ------------------------------------------------

 NO OUTPUT CONTROL FOR STRESS PERIOD   38   TIME STEP   27
 
 SOLVING FOR HEAD 
                                                   Max.-Head-Change                         Max.-Flux-Residual
  Residual-Control   Outer-Iter.   Inner-Iter.     Column Row Layer    Maximum-Head-Change  Column Row Layer    Maximum-Flux-Residual          L2-NORM 
          0                 1           2             4    7     1       0.1506568174E-01       4    7    1         0.7888484315E+00      0.2110678978E+01
          0                 2           2             4    7     1      -0.1464688986E-02       4    7    1        -0.7884215008E-01      0.2109984436E+00
          0                 3           1             4    7     1       0.9966465594E-04       4    7    1         0.5514773162E-02      0.1476314266E-01

    ------------------------------------------------
       NWT REQUIRED            3 OUTER ITERATIONS 
       AND A TOTAL OF          5 INNER ITERATIONS.
    ------------------------------------------------

 NO OUTPUT CONTROL FOR STRESS PERIOD   38   TIME STEP   28
 
 SOLVING FOR HEAD 
                                                   Max.-Head-Change                         Max.-Flux-Residual
  Residual-Control   Outer-Iter.   Inner-Iter.     Column Row Layer    Maximum-Head-Change  Column Row Layer    Maximum-Flux-Residual          L2-NORM 
          0                 1           2             4    7     1       0.1495038404E-01       4    7    1         0.7827877891E+00      0.2097703513E+01
          0                 2           2             4    7     1      -0.1453479664E-02       4    7    1        -0.7823640970E-01      0.2097015576E+00
          0                 3           1             4    7     1       0.9890191786E-04       4    7    1         0.5472403316E-02      0.1467240547E-01

    ------------------------------------------------
       NWT REQUIRED            3 OUTER ITERATIONS 
       AND A TOTAL OF          5 INNER ITERATIONS.
    ------------------------------------------------

 NO OUTPUT CONTROL FOR STRESS PERIOD   38   TIME STEP   29
 
 SOLVING FOR HEAD 
                                                   Max.-Head-Change                         Max.-Flux-Residual
  Residual-Control   Outer-Iter.   Inner-Iter.     Column Row Layer    Maximum-Head-Change  Column Row Layer    Maximum-Flux-Residual          L2-NORM 
          0                 1           2             4    7     1       0.1483624497E-01       4    7    1         0.7767878262E+00      0.2084875922E+01
          0                 2           2             4    7     1      -0.1442382986E-02       4    7    1        -0.7763673407E-01      0.2084193709E+00
          0                 3           1             4    7     1       0.9814684457E-04       4    7    1         0.5430457700E-02      0.1458272389E-01

    ------------------------------------------------
       NWT REQUIRED            3 OUTER ITERATIONS 
       AND A TOTAL OF          5 INNER ITERATIONS.
    ------------------------------------------------

 NO OUTPUT CONTROL FOR STRESS PERIOD   38   TIME STEP   30



 STREAM LISTING     PERIOD     38   STEP       30

 LAYER ROW COL. STREAM  RCH.  FLOW INTO     FLOW TO   FLOW OUT OF   OVRLND.     DIRECT     STREAM       STREAM     STREAM     STREAM   STREAMBED  STREAMBED
                SEG.NO.  NO.  STRM. RCH.    AQUIFER    STRM. RCH.    RUNOFF     PRECIP       ET          HEAD       DEPTH      WIDTH   CONDCTNC.   GRADIENT

   1    1    1     1     1    1.9000E+01  2.1427E-01   1.8786E+01  0.000E+00  0.000E+00  0.000E+00  1.09413E+03  1.082E+00  1.166E+01  5.249E-02  1.361E+00
   1    2    2     1     2    1.8786E+01  3.3054E-01   1.8455E+01  0.000E+00  0.000E+00  0.000E+00  1.08914E+03  1.077E+00  1.158E+01  8.107E-02  1.359E+00
   1    3    3     1     3    1.8455E+01  2.8064E-01   1.8175E+01  0.000E+00  0.000E+00  0.000E+00  1.08349E+03  1.072E+00  1.149E+01  6.892E-02  1.357E+00
   1    3    4     1     4    1.8175E+01  2.5740E-01   1.7917E+01  0.000E+00  0.000E+00  0.000E+00  1.07848E+03  1.068E+00  1.140E+01  6.328E-02  1.356E+00
   1    4    5     2     1    1.5917E+01  3.0542E-01   1.5612E+01  0.000E+00  0.000E+00  0.000E+00  1.07285E+03  9.157E-01  1.200E+01  7.800E-02  1.305E+00
   1    5    6     2     2    1.5612E+01  2.3438E-01   1.5377E+01  0.000E+00  0.000E+00  0.000E+00  1.06742E+03  9.063E-01  1.200E+01  6.000E-02  1.302E+00
   1    6    6     2     3    1.5377E+01  2.3388E-01   1.5143E+01  0.000E+00  0.000E+00  0.000E+00  1.06269E+03  8.980E-01  1.200E+01  6.000E-02  1.299E+00
   1    7    6     2     4    1.5143E+01  2.3338E-01   1.4910E+01  0.000E+00  0.000E+00  0.000E+00  1.05797E+03  8.897E-01  1.200E+01  6.000E-02  1.297E+00
   1    8    6     2     5    1.4910E+01  2.3289E-01   1.4677E+01  0.000E+00  0.000E+00  0.000E+00  1.05324E+03  8.814E-01  1.200E+01  6.000E-02  1.294E+00
   1    3    5     3     1    2.0000E+00  2.8252E-01   1.7175E+00  0.000E+00  0.000E+00  0.000E+00  1.07555E+03  1.909E+00  9.636E+00  7.227E-02  1.955E+00
   1    3    6     3     2    1.7175E+00  2.4905E-01   1.4684E+00  0.000E+00  0.000E+00  0.000E+00  1.07264E+03  1.727E+00  8.909E+00  6.682E-02  1.864E+00
   1    3    7     3     3    1.4684E+00  1.9718E-01   1.2712E+00  0.000E+00  0.000E+00  0.000E+00  1.06987E+03  1.555E+00  8.218E+00  5.547E-02  1.777E+00
   1    4    8     3     4    1.2712E+00  2.2567E-01   1.0456E+00  0.000E+00  0.000E+00  0.000E+00  1.06682E+03  1.364E+00  7.455E+00  6.709E-02  1.682E+00
   1    5    8     3     5    1.0456E+00  1.5790E-01   8.8768E-01  0.000E+00  0.000E+00  0.000E+00  1.06362E+03  1.164E+00  6.655E+00  4.991E-02  1.582E+00
   1    6    8     3     6    8.8768E-01  5.5980E-02   8.3170E-01  0.000E+00  0.000E+00  0.000E+00  1.06158E+03  1.036E+00  6.145E+00  1.844E-02  1.518E+00
   1    5   10     4     1    1.0000E+01  9.0919E-02   9.9091E+00  0.000E+00  0.000E+00  0.000E+00  1.07836E+03  6.368E-01  1.000E+01  2.500E-02  1.212E+00
   1    5    9     4     2    9.9091E+00  1.8158E-01   9.7275E+00  0.000E+00  0.000E+00  0.000E+00  1.07154E+03  6.315E-01  1.000E+01  5.000E-02  1.211E+00
   1    6    8     4     3    9.7275E+00  1.2689E-01   9.6006E+00  0.000E+00  0.000E+00  0.000E+00  1.06381E+03  6.256E-01  1.000E+01  3.500E-02  1.209E+00
   1    6    8     5     1    1.0432E+01  2.2686E-01   1.0205E+01  0.000E+00  0.000E+00  0.000E+00  1.05868E+03  6.790E-01  1.542E+01  6.166E-02  1.226E+00
   1    7    7     5     2    1.0205E+01  2.7894E-01   9.9265E+00  0.000E+00  0.000E+00  0.000E+00  1.05417E+03  6.732E-01  1.519E+01  7.594E-02  1.224E+00
   1    8    7     5     3    9.9265E+00  1.9221E-01   9.7343E+00  0.000E+00  0.000E+00  0.000E+00  1.04992E+03  6.676E-01  1.497E+01  5.241E-02  1.223E+00
   1    8    6     5     4    9.7343E+00  1.3577E-01   9.5985E+00  0.000E+00  0.000E+00  0.000E+00  1.04691E+03  6.637E-01  1.482E+01  3.706E-02  1.221E+00
   1    9    6     6     1    2.4276E+01  2.5176E-01   2.4024E+01  0.000E+00  0.000E+00  0.000E+00  1.04392E+03  1.196E+00  1.200E+01  6.000E-02  1.399E+00
   1   10    7     6     2    2.4024E+01  2.5131E-01   2.3773E+01  0.000E+00  0.000E+00  0.000E+00  1.03937E+03  1.188E+00  1.200E+01  6.000E-02  1.396E+00
   1   11    7     6     3    2.3773E+01  2.5086E-01   2.3522E+01  0.000E+00  0.000E+00  0.000E+00  1.03482E+03  1.181E+00  1.200E+01  6.000E-02  1.394E+00
   1   12    7     6     4    2.3522E+01  2.5041E-01   2.3271E+01  0.000E+00  0.000E+00  0.000E+00  1.03026E+03  1.173E+00  1.200E+01  6.000E-02  1.391E+00
   1   13    7     6     5    2.3271E+01  9.2714E-03   2.3262E+01  0.000E+00  0.000E+00  0.000E+00  1.02708E+03  1.170E+00  1.200E+01  2.400E-02  1.288E-01
   1   14    9     7     1    1.5000E+02  1.3622E+00   1.4864E+02  0.000E+00  0.000E+00  0.000E+00  1.03987E+03  2.288E+00  5.529E+01  5.593E-01  8.119E-01
   1   13    8     7     2    1.4864E+02  1.9440E+00   1.4669E+02  0.000E+00  0.000E+00  0.000E+00  1.03478E+03  2.279E+00  5.525E+01  6.148E-01  1.054E+00
   1   13    7     7     3    1.4669E+02  1.6731E+00   1.4502E+02  0.000E+00  0.000E+00  0.000E+00  1.02969E+03  2.269E+00  5.521E+01  5.584E-01  9.987E-01
   1   13    6     8     1    1.6828E+02  1.1152E+00   1.6717E+02  0.000E+00  0.000E+00  0.000E+00  1.02481E+03  2.937E+00  4.259E+01  4.340E-01  8.565E-01
   1   13    5     8     2    1.6717E+02  3.6055E-01   1.6681E+02  0.000E+00  0.000E+00  0.000E+00  1.01856E+03  2.932E+00  4.252E+01  4.333E-01  2.774E-01
   1   13    4     8     3    1.6681E+02 -1.8038E+00   1.6861E+02  0.000E+00  0.000E+00  0.000E+00  1.01231E+03  2.937E+00  4.259E+01  4.340E+00 -1.385E-01
   1   13    3     8     4    1.6861E+02 -3.3482E+00   1.7196E+02  0.000E+00  0.000E+00  0.000E+00  1.00608E+03  2.954E+00  4.283E+01  4.365E+00 -2.557E-01
   1   13    2     8     5    1.7196E+02 -2.5065E+00   1.7447E+02  0.000E+00  0.000E+00  0.000E+00  9.99848E+02  2.973E+00  4.311E+01  4.393E+00 -1.902E-01
   1   13    1     8     6    1.7447E+02 -1.9649E+00   1.7643E+02  0.000E+00  0.000E+00  0.000E+00  9.94862E+02  2.987E+00  4.332E+01  2.648E+00 -2.473E-01





UNSATURATED ZONE PACKAGE VOLUMETRIC BUDGET FOR  TIME STEP    30 STRESS PERIOD   38
  ------------------------------------------------------------------------------



     CUMULATIVE VOLUMES      L**3       RATES FOR THIS TIME STEP      L**3/T
     ------------------                 ------------------------

           IN:                                      IN:
           ---                                      ---
        INFILTRATION =  1511376559.1699          INFILTRATION =           0.8475

          OUT:                                     OUT:
          ----                                     ----
              UZF ET =  1293367273.9018                UZF ET =           0.7500
        UZF RECHARGE =   217165017.1990          UZF RECHARGE =           0.0002

            IN - OUT =      844268.0690              IN - OUT =       9.7306E-02

          STORAGE:                                 STORAGE:
          --------                                 --------
      STORAGE CHANGE =      844286.2910        STORAGE CHANGE =       9.7306E-02

 PERCENT DISCREPANCY IS DIFFERENCE BETWEEN IN-OUT MINUS CHANGE IN STORAGE
 DIVIDED BY THE AVERAGE OF IN AND OUT TIMES 100

 PERCENT DISCREPANCY =          -0.00     PERCENT DISCREPANCY =           0.00






1
  VOLUMETRIC BUDGET FOR AGRICULTURAL FIELDS AT  END OF TIME STEP   30, STRESS PERIOD  38
  ------------------------------------------------------------------------------

     CUMULATIVE VOLUMES      L**3       RATES FOR THIS TIME STEP      L**3/T
     ------------------                 ------------------------

           IN:                                      IN:
           ---                                      ---
               AG WELLS  =  1428831872.0000                 AG WELLS  =           0.0000
      DIVERSION SEGMENTS =           0.0000        DIVERSION SEGMENTS =           0.0000
           GW IRRIGATION =           0.0000             GW IRRIGATION =           0.0000
           SW IRRIGATION =           0.0000             SW IRRIGATION =           0.0000
        SYSTEM LOSSES GW =           0.0000          SYSTEM LOSSES GW =           0.0000
        SYSTEM LOSSES SW =           0.0000          SYSTEM LOSSES SW =           0.0000

                TOTAL IN =  1428831872.0000                  TOTAL IN =           0.0000

          OUT:                                     OUT:
          ----                                     ----
               AG WELLS  =           0.0000                 AG WELLS  =           0.0000
      DIVERSION SEGMENTS =           0.0000        DIVERSION SEGMENTS =           0.0000
           GW IRRIGATION =  1428831872.0000             GW IRRIGATION =           0.0000
           SW IRRIGATION =           0.0000             SW IRRIGATION =           0.0000
        SYSTEM LOSSES GW =           0.0000          SYSTEM LOSSES GW =           0.0000
        SYSTEM LOSSES SW =           0.0000          SYSTEM LOSSES SW =           0.0000

               TOTAL OUT =  1428831872.0000                 TOTAL OUT =           0.0000

                IN - OUT =           0.0000                  IN - OUT =           0.0000

     PERCENT DISCREPANCY =           0.00         PERCENT DISCREPANCY =           0.00



1
  VOLUMETRIC BUDGET FOR ENTIRE MODEL AT END OF TIME STEP   30, STRESS PERIOD  38
  ------------------------------------------------------------------------------

     CUMULATIVE VOLUMES      L**3       RATES FOR THIS TIME STEP      L**3/T
     ------------------                 ------------------------

           IN:                                      IN:
           ---                                      ---
             STORAGE     =  1856786944.0000               STORAGE     =           5.5986
       CONSTANT HEAD     =           0.0000         CONSTANT HEAD     =           0.0000
     HEAD DEP BOUNDS     =    27846520.0000       HEAD DEP BOUNDS     =           0.2876
      STREAM LEAKAGE     =  1193823872.0000        STREAM LEAKAGE     =          12.1929
        UZF RECHARGE     =   217164848.0000          UZF RECHARGE     =       1.9362E-04
               GW ET     =           0.0000                 GW ET     =           0.0000
     SURFACE LEAKAGE     =           0.0000       SURFACE LEAKAGE     =           0.0000
           AG WELLS      =           0.0000             AG WELLS      =           0.0000

                TOTAL IN =  3295622144.0000                  TOTAL IN =          18.0793

          OUT:                                     OUT:
          ----                                     ----
             STORAGE     =   825451520.0000               STORAGE     =           8.1676
       CONSTANT HEAD     =           0.0000         CONSTANT HEAD     =           0.0000
     HEAD DEP BOUNDS     =    28472510.0000       HEAD DEP BOUNDS     =           0.2890
      STREAM LEAKAGE     =   995356992.0000        STREAM LEAKAGE     =           9.6234
        UZF RECHARGE     =           0.0000          UZF RECHARGE     =           0.0000
               GW ET     =    17516202.0000                 GW ET     =           0.0000
     SURFACE LEAKAGE     =           0.0000       SURFACE LEAKAGE     =           0.0000
           AG WELLS      =  1428831872.0000             AG WELLS      =           0.0000

               TOTAL OUT =  3295629056.0000                 TOTAL OUT =          18.0800

                IN - OUT =       -6912.0000                  IN - OUT =      -7.2670E-04

     PERCENT DISCREPANCY =          -0.00         PERCENT DISCREPANCY =          -0.00






         TIME SUMMARY AT END OF TIME STEP   30 IN STRESS PERIOD   38
                    SECONDS     MINUTES      HOURS       DAYS        YEARS
                    -----------------------------------------------------------
   TIME STEP LENGTH  87667.      1461.1      24.352      1.0147     2.77799E-03
 STRESS PERIOD TIME 2.63000E+06  43833.      730.56      30.440     8.33397E-02
         TOTAL TIME 9.73959E+07 1.62326E+06  27054.      1127.3      3.0863    
1
1
                            STRESS PERIOD NO.   39, LENGTH =   2630000.    
                            -----------------------------------------------

                              NUMBER OF TIME STEPS =    30

                               MULTIPLIER FOR DELT =     1.000

                            INITIAL TIME STEP SIZE =   87666.66    

 REUSING NON-PARAMETER GHB CELLS FROM LAST STRESS PERIOD

      2 GHB CELLS

 REUSING STREAM SEGMENT DATA FROM LAST STRESS PERIOD



            AREAL INFILTRATION RATE
 READING ON UNIT   19 WITH FORMAT: (FREE)              

            1           2           3           4           5           6           7           8           9          10
 ........................................................................................................................
   1   1.0000E-10  2.0000E-10   0.000       0.000       0.000       0.000       0.000       0.000       0.000       0.000    
   2   2.0000E-10  1.0000E-10  2.0000E-10   0.000       0.000      8.0000E-10  8.0000E-10  5.0000E-10   0.000       0.000    
   3    0.000      5.0000E-10  1.0000E-10  1.0000E-10  8.0000E-10  8.0000E-10  5.0000E-10  5.0000E-10   0.000       0.000    
   4   8.0000E-10  5.0000E-10  1.0000E-10  1.0000E-10  1.0000E-10  1.0000E-10  1.0000E-10  1.0000E-10  2.0000E-10   0.000    
   5   8.0000E-10  5.0000E-10  1.0000E-10  1.0000E-10  1.0000E-10  1.0000E-10  1.0000E-10  1.0000E-10  1.0000E-10  1.0000E-10
   6   8.0000E-10  5.0000E-10  5.0000E-10  2.0000E-10  2.0000E-10  1.0000E-10  1.0000E-10  1.0000E-10  1.0000E-10  5.0000E-10
   7   8.0000E-10  5.0000E-10  5.0000E-10  2.0000E-10  2.0000E-10  1.0000E-10  1.0000E-10  2.0000E-10  2.0000E-10   0.000    
   8    0.000      5.0000E-10  5.0000E-10  2.0000E-10  2.0000E-10  1.0000E-10  1.0000E-10  2.0000E-10  5.0000E-10   0.000    
   9    0.000      5.0000E-10  5.0000E-10  2.0000E-10  2.0000E-10  1.0000E-10  1.0000E-10  2.0000E-10  5.0000E-10   0.000    
  10    0.000      5.0000E-10  5.0000E-10  2.0000E-10  2.0000E-10  1.0000E-10  1.0000E-10  2.0000E-10  5.0000E-10  8.0000E-10
  11    0.000      1.0000E-10  1.0000E-10  1.0000E-10  1.0000E-10  1.0000E-10  1.0000E-10  2.0000E-10  5.0000E-10   0.000    
  12   1.0000E-10  1.0000E-10  1.0000E-10  1.0000E-10  1.0000E-10  1.0000E-10  1.0000E-10  1.0000E-10  2.0000E-10   0.000    
  13   1.0000E-10  1.0000E-10  2.0000E-10  2.0000E-10  2.0000E-10  2.0000E-10  2.0000E-10  1.0000E-10  1.0000E-10   0.000    
  14    0.000      2.0000E-10  5.0000E-10  5.0000E-10  5.0000E-10  5.0000E-10  5.0000E-10  2.0000E-10  1.0000E-10   0.000    
  15    0.000       0.000      8.0000E-10  8.0000E-10  8.0000E-10  8.0000E-10   0.000       0.000       0.000       0.000    

                  ET RATE =  5.000000E-10

 USING ET EXTINCTION DEPTH FROM PREVIOUS STRESS PERIOD. CURRENT PERIOD IS:      39

 USING EXTINCTION WATER CONTENT FROM PREVIOUS STRESS PERIOD. CURRENT PERIOD IS:      39

 USING AIR ENTRY PRESSURE FROM PREVIOUS STRESS PERIOD. CURRENT PERIOD IS:      39

 USING ROOT PRESSURE HEAD FROM PREVIOUS STRESS PERIOD. CURRENT PERIOD IS:      39

 USING ROOT ACTIVITY FROM PREVIOUS STRESS PERIOD. CURRENT PERIOD IS:      39

 PROCESSING AG STRESS PERIOD DATA

 READING AG STRESS PERIOD DATA

 READING IRRIGATION WELL

 END PROCESSING AG STRESS PERIOD DATA OPTIONS
 
 SOLVING FOR HEAD 
                                                   Max.-Head-Change                         Max.-Flux-Residual
  Residual-Control   Outer-Iter.   Inner-Iter.     Column Row Layer    Maximum-Head-Change  Column Row Layer    Maximum-Flux-Residual          L2-NORM 
          0                 1           2             4    7     1       0.1472351490E-01       4    7    1         0.7708625649E+00      0.2072187290E+01
          0                 2           2             4    7     1      -0.1431423293E-02       4    7    1        -0.7704452468E-01      0.2071510835E+00
          0                 3           1             4    7     1       0.9740109289E-04       4    7    1         0.5389034348E-02      0.1449399584E-01

    ------------------------------------------------
       NWT REQUIRED            3 OUTER ITERATIONS 
       AND A TOTAL OF          5 INNER ITERATIONS.
    ------------------------------------------------

 NO OUTPUT CONTROL FOR STRESS PERIOD   39   TIME STEP    1
 
 SOLVING FOR HEAD 
                                                   Max.-Head-Change                         Max.-Flux-Residual
  Residual-Control   Outer-Iter.   Inner-Iter.     Column Row Layer    Maximum-Head-Change  Column Row Layer    Maximum-Flux-Residual          L2-NORM 
          0                 1           2             4    7     1       0.1461216498E-01       4    7    1         0.7650103576E+00      0.2059641466E+01
          0                 2           2             4    7     1      -0.1420597780E-02       4    7    1        -0.7645961687E-01      0.2058970584E+00
          0                 3           1             4    7     1       0.9666447100E-04       4    7    1         0.5348121695E-02      0.1440628401E-01

    ------------------------------------------------
       NWT REQUIRED            3 OUTER ITERATIONS 
       AND A TOTAL OF          5 INNER ITERATIONS.
    ------------------------------------------------

 NO OUTPUT CONTROL FOR STRESS PERIOD   39   TIME STEP    2
 
 SOLVING FOR HEAD 
                                                   Max.-Head-Change                         Max.-Flux-Residual
  Residual-Control   Outer-Iter.   Inner-Iter.     Column Row Layer    Maximum-Head-Change  Column Row Layer    Maximum-Flux-Residual          L2-NORM 
          0                 1           2             4    7     1       0.1450204088E-01       4    7    1         0.7592223934E+00      0.2047242861E+01
          0                 2           2             4    7     1      -0.1409891443E-02       4    7    1        -0.7588112997E-01      0.2046577385E+00
          0                 3           1             4    7     1       0.9593595860E-04       4    7    1         0.5307658186E-02      0.1431955415E-01

    ------------------------------------------------
       NWT REQUIRED            3 OUTER ITERATIONS 
       AND A TOTAL OF          5 INNER ITERATIONS.
    ------------------------------------------------

 NO OUTPUT CONTROL FOR STRESS PERIOD   39   TIME STEP    3
 
 SOLVING FOR HEAD 
                                                   Max.-Head-Change                         Max.-Flux-Residual
  Residual-Control   Outer-Iter.   Inner-Iter.     Column Row Layer    Maximum-Head-Change  Column Row Layer    Maximum-Flux-Residual          L2-NORM 
          0                 1           2             4    7     1       0.1439311501E-01       4    7    1         0.7534979856E+00      0.2034970691E+01
          0                 2           2             4    7     1      -0.1399301598E-02       4    7    1        -0.7530899539E-01      0.2034310692E+00
          0                 3           1             4    7     1       0.9521537298E-04       4    7    1         0.5267638968E-02      0.1423375471E-01

    ------------------------------------------------
       NWT REQUIRED            3 OUTER ITERATIONS 
       AND A TOTAL OF          5 INNER ITERATIONS.
    ------------------------------------------------

 NO OUTPUT CONTROL FOR STRESS PERIOD   39   TIME STEP    4
 
 SOLVING FOR HEAD 
                                                   Max.-Head-Change                         Max.-Flux-Residual
  Residual-Control   Outer-Iter.   Inner-Iter.     Column Row Layer    Maximum-Head-Change  Column Row Layer    Maximum-Flux-Residual          L2-NORM 
          0                 1           2             4    7     1       0.1428537380E-01       4    7    1         0.7478357032E+00      0.2022838060E+01
          0                 2           2             4    7     1      -0.1388826929E-02       4    7    1        -0.7474307007E-01      0.2022183509E+00
          0                 3           1             4    7     1       0.9450262408E-04       4    7    1         0.5228054098E-02      0.1414891244E-01

    ------------------------------------------------
       NWT REQUIRED            3 OUTER ITERATIONS 
       AND A TOTAL OF          5 INNER ITERATIONS.
    ------------------------------------------------

 NO OUTPUT CONTROL FOR STRESS PERIOD   39   TIME STEP    5
 
 SOLVING FOR HEAD 
                                                   Max.-Head-Change                         Max.-Flux-Residual
  Residual-Control   Outer-Iter.   Inner-Iter.     Column Row Layer    Maximum-Head-Change  Column Row Layer    Maximum-Flux-Residual          L2-NORM 
          0                 1           2             4    7     1       0.1417893356E-01       4    7    1         0.7422421590E+00      0.2010837370E+01
          0                 2           2             4    7     1      -0.1378478740E-02       4    7    1        -0.7418401493E-01      0.2010187873E+00
          0                 3           1             4    7     1       0.9379848169E-04       4    7    1         0.5188949765E-02      0.1406497530E-01

    ------------------------------------------------
       NWT REQUIRED            3 OUTER ITERATIONS 
       AND A TOTAL OF          5 INNER ITERATIONS.
    ------------------------------------------------

 NO OUTPUT CONTROL FOR STRESS PERIOD   39   TIME STEP    6
 
 SOLVING FOR HEAD 
                                                   Max.-Head-Change                         Max.-Flux-Residual
  Residual-Control   Outer-Iter.   Inner-Iter.     Column Row Layer    Maximum-Head-Change  Column Row Layer    Maximum-Flux-Residual          L2-NORM 
          0                 1           2             4    7     1       0.1407363071E-01       4    7    1         0.7367087516E+00      0.1998964179E+01
          0                 2           2             4    7     1      -0.1368241131E-02       4    7    1        -0.7363097035E-01      0.1998320194E+00
          0                 3           1             4    7     1       0.9310186398E-04       4    7    1         0.5150265866E-02      0.1398197648E-01

    ------------------------------------------------
       NWT REQUIRED            3 OUTER ITERATIONS 
       AND A TOTAL OF          5 INNER ITERATIONS.
    ------------------------------------------------

 NO OUTPUT CONTROL FOR STRESS PERIOD   39   TIME STEP    7
 
 SOLVING FOR HEAD 
                                                   Max.-Head-Change                         Max.-Flux-Residual
  Residual-Control   Outer-Iter.   Inner-Iter.     Column Row Layer    Maximum-Head-Change  Column Row Layer    Maximum-Flux-Residual          L2-NORM 
          0                 1           2             4    7     1       0.1396958468E-01       4    7    1         0.7312416322E+00      0.1987228300E+01
          0                 2           2             4    7     1      -0.1358125712E-02       4    7    1        -0.7308455107E-01      0.1986589574E+00
          0                 3           1             4    7     1       0.9241356047E-04       4    7    1         0.5112045394E-02      0.1389990638E-01

    ------------------------------------------------
       NWT REQUIRED            3 OUTER ITERATIONS 
       AND A TOTAL OF          5 INNER ITERATIONS.
    ------------------------------------------------

 NO OUTPUT CONTROL FOR STRESS PERIOD   39   TIME STEP    8
 
 SOLVING FOR HEAD 
                                                   Max.-Head-Change                         Max.-Flux-Residual
  Residual-Control   Outer-Iter.   Inner-Iter.     Column Row Layer    Maximum-Head-Change  Column Row Layer    Maximum-Flux-Residual          L2-NORM 
          0                 1           2             4    7     1       0.1386663900E-01       4    7    1         0.7258323600E+00      0.1975615441E+01
          0                 2           2             4    7     1      -0.1348117268E-02       4    7    1        -0.7254391344E-01      0.1974982076E+00
          0                 3           1             4    7     1       0.9173253586E-04       4    7    1         0.5074229312E-02      0.1381870480E-01

    ------------------------------------------------
       NWT REQUIRED            3 OUTER ITERATIONS 
       AND A TOTAL OF          5 INNER ITERATIONS.
    ------------------------------------------------

 NO OUTPUT CONTROL FOR STRESS PERIOD   39   TIME STEP    9
 
 SOLVING FOR HEAD 
                                                   Max.-Head-Change                         Max.-Flux-Residual
  Residual-Control   Outer-Iter.   Inner-Iter.     Column Row Layer    Maximum-Head-Change  Column Row Layer    Maximum-Flux-Residual          L2-NORM 
          0                 1           2             4    7     1       0.1376491019E-01       4    7    1         0.7204874550E+00      0.1964128868E+01
          0                 2           2             4    7     1      -0.1338227131E-02       4    7    1        -0.7200970918E-01      0.1963500463E+00
          0                 3           1             4    7     1       0.9105956215E-04       4    7    1         0.5036863251E-02      0.1373838627E-01

    ------------------------------------------------
       NWT REQUIRED            3 OUTER ITERATIONS 
       AND A TOTAL OF          5 INNER ITERATIONS.
    ------------------------------------------------

 NO OUTPUT CONTROL FOR STRESS PERIOD   39   TIME STEP   10
 
 SOLVING FOR HEAD 
                                                   Max.-Head-Change                         Max.-Flux-Residual
  Residual-Control   Outer-Iter.   Inner-Iter.     Column Row Layer    Maximum-Head-Change  Column Row Layer    Maximum-Flux-Residual          L2-NORM 
          0                 1           2             4    7     1       0.1366424214E-01       4    7    1         0.7151983258E+00      0.1952765309E+01
          0                 2           2             4    7     1      -0.1328440122E-02       4    7    1        -0.7148107951E-01      0.1952142000E+00
          0                 3           1             4    7     1       0.9039360510E-04       4    7    1         0.4999887092E-02      0.1365892075E-01

    ------------------------------------------------
       NWT REQUIRED            3 OUTER ITERATIONS 
       AND A TOTAL OF          5 INNER ITERATIONS.
    ------------------------------------------------

 NO OUTPUT CONTROL FOR STRESS PERIOD   39   TIME STEP   11
 
 SOLVING FOR HEAD 
                                                   Max.-Head-Change                         Max.-Flux-Residual
  Residual-Control   Outer-Iter.   Inner-Iter.     Column Row Layer    Maximum-Head-Change  Column Row Layer    Maximum-Flux-Residual          L2-NORM 
          0                 1           2             4    7     1       0.1356461861E-01       4    7    1         0.7099641949E+00      0.1941520955E+01
          0                 2           2             4    7     1      -0.1318754663E-02       4    7    1        -0.7095794678E-01      0.1940902823E+00
          0                 3           1             4    7     1       0.8973455832E-04       4    7    1         0.4963295464E-02      0.1358030895E-01

    ------------------------------------------------
       NWT REQUIRED            3 OUTER ITERATIONS 
       AND A TOTAL OF          5 INNER ITERATIONS.
    ------------------------------------------------

 NO OUTPUT CONTROL FOR STRESS PERIOD   39   TIME STEP   12
 
 SOLVING FOR HEAD 
                                                   Max.-Head-Change                         Max.-Flux-Residual
  Residual-Control   Outer-Iter.   Inner-Iter.     Column Row Layer    Maximum-Head-Change  Column Row Layer    Maximum-Flux-Residual          L2-NORM 
          0                 1           2             4    7     1       0.1346615871E-01       4    7    1         0.7047915373E+00      0.1930398939E+01
          0                 2           2             4    7     1      -0.1309182334E-02       4    7    1        -0.7044095816E-01      0.1929785753E+00
          0                 3           1             4    7     1       0.8908320945E-04       4    7    1         0.4927133567E-02      0.1350254379E-01

    ------------------------------------------------
       NWT REQUIRED            3 OUTER ITERATIONS 
       AND A TOTAL OF          5 INNER ITERATIONS.
    ------------------------------------------------

 NO OUTPUT CONTROL FOR STRESS PERIOD   39   TIME STEP   13
 
 SOLVING FOR HEAD 
                                                   Max.-Head-Change                         Max.-Flux-Residual
  Residual-Control   Outer-Iter.   Inner-Iter.     Column Row Layer    Maximum-Head-Change  Column Row Layer    Maximum-Flux-Residual          L2-NORM 
          0                 1           2             4    7     1       0.1336884414E-01       4    7    1         0.6996792124E+00      0.1919399804E+01
          0                 2           2             4    7     1      -0.1299721353E-02       4    7    1        -0.6992999960E-01      0.1918791426E+00
          0                 3           1             4    7     1       0.8843943721E-04       4    7    1         0.4891393476E-02      0.1342560419E-01

    ------------------------------------------------
       NWT REQUIRED            3 OUTER ITERATIONS 
       AND A TOTAL OF          5 INNER ITERATIONS.
    ------------------------------------------------

 NO OUTPUT CONTROL FOR STRESS PERIOD   39   TIME STEP   14
 
 SOLVING FOR HEAD 
                                                   Max.-Head-Change                         Max.-Flux-Residual
  Residual-Control   Outer-Iter.   Inner-Iter.     Column Row Layer    Maximum-Head-Change  Column Row Layer    Maximum-Flux-Residual          L2-NORM 
          0                 1           2             4    7     1       0.1327251851E-01       4    7    1         0.6946189525E+00      0.1908516119E+01
          0                 2           2             4    7     1      -0.1290356521E-02       4    7    1        -0.6942424483E-01      0.1907912660E+00
          0                 3           1             4    7     1       0.8780220709E-04       4    7    1         0.4856017353E-02      0.1334951045E-01

    ------------------------------------------------
       NWT REQUIRED            3 OUTER ITERATIONS 
       AND A TOTAL OF          5 INNER ITERATIONS.
    ------------------------------------------------

 NO OUTPUT CONTROL FOR STRESS PERIOD   39   TIME STEP   15
 
 SOLVING FOR HEAD 
                                                   Max.-Head-Change                         Max.-Flux-Residual
  Residual-Control   Outer-Iter.   Inner-Iter.     Column Row Layer    Maximum-Head-Change  Column Row Layer    Maximum-Flux-Residual          L2-NORM 
          0                 1           2             4    7     1       0.1317730238E-01       4    7    1         0.6896172858E+00      0.1897749631E+01
          0                 2           2             4    7     1      -0.1281099553E-02       4    7    1        -0.6892434626E-01      0.1897151125E+00
          0                 3           1             4    7     1       0.8717231727E-04       4    7    1         0.4821050875E-02      0.1327424692E-01

    ------------------------------------------------
       NWT REQUIRED            3 OUTER ITERATIONS 
       AND A TOTAL OF          5 INNER ITERATIONS.
    ------------------------------------------------

 NO OUTPUT CONTROL FOR STRESS PERIOD   39   TIME STEP   16
 
 SOLVING FOR HEAD 
                                                   Max.-Head-Change                         Max.-Flux-Residual
  Residual-Control   Outer-Iter.   Inner-Iter.     Column Row Layer    Maximum-Head-Change  Column Row Layer    Maximum-Flux-Residual          L2-NORM 
          0                 1           2             4    7     1       0.1308304056E-01       4    7    1         0.6846658256E+00      0.1887088228E+01
          0                 2           2             4    7     1      -0.1271935366E-02       4    7    1        -0.6842946568E-01      0.1886494124E+00
          0                 3           1             4    7     1       0.8654874047E-04       4    7    1         0.4786435401E-02      0.1319965264E-01

    ------------------------------------------------
       NWT REQUIRED            3 OUTER ITERATIONS 
       AND A TOTAL OF          5 INNER ITERATIONS.
    ------------------------------------------------

 NO OUTPUT CONTROL FOR STRESS PERIOD   39   TIME STEP   17
 
 SOLVING FOR HEAD 
                                                   Max.-Head-Change                         Max.-Flux-Residual
  Residual-Control   Outer-Iter.   Inner-Iter.     Column Row Layer    Maximum-Head-Change  Column Row Layer    Maximum-Flux-Residual          L2-NORM 
          0                 1           2             4    7     1       0.1298985558E-01       4    7    1         0.6797711632E+00      0.1876547437E+01
          0                 2           2             4    7     1      -0.1262875869E-02       4    7    1        -0.6794026189E-01      0.1875958181E+00
          0                 3           1             4    7     1       0.8593228707E-04       4    7    1         0.4752216983E-02      0.1312596788E-01

    ------------------------------------------------
       NWT REQUIRED            3 OUTER ITERATIONS 
       AND A TOTAL OF          5 INNER ITERATIONS.
    ------------------------------------------------

 NO OUTPUT CONTROL FOR STRESS PERIOD   39   TIME STEP   18
 
 SOLVING FOR HEAD 
                                                   Max.-Head-Change                         Max.-Flux-Residual
  Residual-Control   Outer-Iter.   Inner-Iter.     Column Row Layer    Maximum-Head-Change  Column Row Layer    Maximum-Flux-Residual          L2-NORM 
          0                 1           2             4    7     1       0.1289773128E-01       4    7    1         0.6749323334E+00      0.1866115190E+01
          0                 2           2             4    7     1      -0.1253919494E-02       4    7    1        -0.6745663843E-01      0.1865530661E+00
          0                 3           1             4    7     1       0.8532285067E-04       4    7    1         0.4718388899E-02      0.1305302763E-01

    ------------------------------------------------
       NWT REQUIRED            3 OUTER ITERATIONS 
       AND A TOTAL OF          5 INNER ITERATIONS.
    ------------------------------------------------

 NO OUTPUT CONTROL FOR STRESS PERIOD   39   TIME STEP   19
 
 SOLVING FOR HEAD 
                                                   Max.-Head-Change                         Max.-Flux-Residual
  Residual-Control   Outer-Iter.   Inner-Iter.     Column Row Layer    Maximum-Head-Change  Column Row Layer    Maximum-Flux-Residual          L2-NORM 
          0                 1           2             4    7     1       0.1280651082E-01       4    7    1         0.6701411787E+00      0.1855789114E+01
          0                 2           2             4    7     1      -0.1245050990E-02       4    7    1        -0.6697777994E-01      0.1855209113E+00
          0                 3           1             4    7     1       0.8471939347E-04       4    7    1         0.4684894107E-02      0.1298108155E-01

    ------------------------------------------------
       NWT REQUIRED            3 OUTER ITERATIONS 
       AND A TOTAL OF          5 INNER ITERATIONS.
    ------------------------------------------------

 NO OUTPUT CONTROL FOR STRESS PERIOD   39   TIME STEP   20
 
 SOLVING FOR HEAD 
                                                   Max.-Head-Change                         Max.-Flux-Residual
  Residual-Control   Outer-Iter.   Inner-Iter.     Column Row Layer    Maximum-Head-Change  Column Row Layer    Maximum-Flux-Residual          L2-NORM 
          0                 1           2             4    7     1       0.1271631845E-01       4    7    1         0.6654042053E+00      0.1845577245E+01
          0                 2           2             4    7     1      -0.1236282438E-02       4    7    1        -0.6650433671E-01      0.1845001868E+00
          0                 3           1             4    7     1       0.8412273731E-04       4    7    1         0.4651778100E-02      0.1290940622E-01

    ------------------------------------------------
       NWT REQUIRED            3 OUTER ITERATIONS 
       AND A TOTAL OF          5 INNER ITERATIONS.
    ------------------------------------------------

 NO OUTPUT CONTROL FOR STRESS PERIOD   39   TIME STEP   21
 
 SOLVING FOR HEAD 
                                                   Max.-Head-Change                         Max.-Flux-Residual
  Residual-Control   Outer-Iter.   Inner-Iter.     Column Row Layer    Maximum-Head-Change  Column Row Layer    Maximum-Flux-Residual          L2-NORM 
          0                 1           2             4    7     1       0.1262700061E-01       4    7    1         0.6607132173E+00      0.1835462877E+01
          0                 2           2             4    7     1      -0.1227598909E-02       4    7    1        -0.6603548959E-01      0.1834892018E+00
          0                 3           1             4    7     1       0.8353186675E-04       4    7    1         0.4618983583E-02      0.1283869721E-01

    ------------------------------------------------
       NWT REQUIRED            3 OUTER ITERATIONS 
       AND A TOTAL OF          5 INNER ITERATIONS.
    ------------------------------------------------

 NO OUTPUT CONTROL FOR STRESS PERIOD   39   TIME STEP   22
 
 SOLVING FOR HEAD 
                                                   Max.-Head-Change                         Max.-Flux-Residual
  Residual-Control   Outer-Iter.   Inner-Iter.     Column Row Layer    Maximum-Head-Change  Column Row Layer    Maximum-Flux-Residual          L2-NORM 
          0                 1           2             4    7     1       0.1253868364E-01       4    7    1         0.6560748912E+00      0.1825456402E+01
          0                 2           2             4    7     1      -0.1219012687E-02       4    7    1        -0.6557190588E-01      0.1824890150E+00
          0                 3           1             4    7     1       0.8294761748E-04       4    7    1         0.4586557228E-02      0.1276872478E-01

    ------------------------------------------------
       NWT REQUIRED            3 OUTER ITERATIONS 
       AND A TOTAL OF          5 INNER ITERATIONS.
    ------------------------------------------------

 NO OUTPUT CONTROL FOR STRESS PERIOD   39   TIME STEP   23
 
 SOLVING FOR HEAD 
                                                   Max.-Head-Change                         Max.-Flux-Residual
  Residual-Control   Outer-Iter.   Inner-Iter.     Column Row Layer    Maximum-Head-Change  Column Row Layer    Maximum-Flux-Residual          L2-NORM 
          0                 1           2             4    7     1       0.1245134852E-01       4    7    1         0.6514884588E+00      0.1815556051E+01
          0                 2           2             4    7     1      -0.1210521920E-02       4    7    1        -0.6511350878E-01      0.1814994053E+00
          0                 3           1             4    7     1       0.8236986359E-04       4    7    1         0.4554493653E-02      0.1269948537E-01

    ------------------------------------------------
       NWT REQUIRED            3 OUTER ITERATIONS 
       AND A TOTAL OF          5 INNER ITERATIONS.
    ------------------------------------------------

 NO OUTPUT CONTROL FOR STRESS PERIOD   39   TIME STEP   24
 
 SOLVING FOR HEAD 
                                                   Max.-Head-Change                         Max.-Flux-Residual
  Residual-Control   Outer-Iter.   Inner-Iter.     Column Row Layer    Maximum-Head-Change  Column Row Layer    Maximum-Flux-Residual          L2-NORM 
          0                 1           2             4    7     1       0.1236497602E-01       4    7    1         0.6469529336E+00      0.1805752118E+01
          0                 2           2             4    7     1      -0.1202124740E-02       4    7    1        -0.6466019972E-01      0.1805194577E+00
          0                 3           1             4    7     1       0.8179847774E-04       4    7    1         0.4522785992E-02      0.1263095666E-01

    ------------------------------------------------
       NWT REQUIRED            3 OUTER ITERATIONS 
       AND A TOTAL OF          5 INNER ITERATIONS.
    ------------------------------------------------

 NO OUTPUT CONTROL FOR STRESS PERIOD   39   TIME STEP   25
 
 SOLVING FOR HEAD 
                                                   Max.-Head-Change                         Max.-Flux-Residual
  Residual-Control   Outer-Iter.   Inner-Iter.     Column Row Layer    Maximum-Head-Change  Column Row Layer    Maximum-Flux-Residual          L2-NORM 
          0                 1           2             4    7     1       0.1227941927E-01       4    7    1         0.6424599982E+00      0.1796050838E+01
          0                 2           2             4    7     1      -0.1193806868E-02       4    7    1        -0.6421114738E-01      0.1795497677E+00
          0                 3           1             4    7     1       0.8123248817E-04       4    7    1         0.4491376047E-02      0.1256310135E-01

    ------------------------------------------------
       NWT REQUIRED            3 OUTER ITERATIONS 
       AND A TOTAL OF          5 INNER ITERATIONS.
    ------------------------------------------------

 NO OUTPUT CONTROL FOR STRESS PERIOD   39   TIME STEP   26
 
 SOLVING FOR HEAD 
                                                   Max.-Head-Change                         Max.-Flux-Residual
  Residual-Control   Outer-Iter.   Inner-Iter.     Column Row Layer    Maximum-Head-Change  Column Row Layer    Maximum-Flux-Residual          L2-NORM 
          0                 1           2             4    7     1       0.1219480224E-01       4    7    1         0.6380166780E+00      0.1786452451E+01
          0                 2           2             4    7     1      -0.1185580357E-02       4    7    1        -0.6376705393E-01      0.1785903491E+00
          0                 3           1             4    7     1       0.8067271553E-04       4    7    1         0.4460312995E-02      0.1249598463E-01

    ------------------------------------------------
       NWT REQUIRED            3 OUTER ITERATIONS 
       AND A TOTAL OF          5 INNER ITERATIONS.
    ------------------------------------------------

 NO OUTPUT CONTROL FOR STRESS PERIOD   39   TIME STEP   27
 
 SOLVING FOR HEAD 
                                                   Max.-Head-Change                         Max.-Flux-Residual
  Residual-Control   Outer-Iter.   Inner-Iter.     Column Row Layer    Maximum-Head-Change  Column Row Layer    Maximum-Flux-Residual          L2-NORM 
          0                 1           2             4    7     1       0.1211110784E-01       4    7    1         0.6336220808E+00      0.1776948827E+01
          0                 2           2             4    7     1      -0.1177443545E-02       4    7    1        -0.6332783022E-01      0.1776404074E+00
          0                 3           1             4    7     1       0.8011904622E-04       4    7    1         0.4429590549E-02      0.1242944682E-01

    ------------------------------------------------
       NWT REQUIRED            3 OUTER ITERATIONS 
       AND A TOTAL OF          5 INNER ITERATIONS.
    ------------------------------------------------

 NO OUTPUT CONTROL FOR STRESS PERIOD   39   TIME STEP   28
 
 SOLVING FOR HEAD 
                                                   Max.-Head-Change                         Max.-Flux-Residual
  Residual-Control   Outer-Iter.   Inner-Iter.     Column Row Layer    Maximum-Head-Change  Column Row Layer    Maximum-Flux-Residual          L2-NORM 
          0                 1           2             4    7     1       0.1202818669E-01       4    7    1         0.6292679996E+00      0.1767539425E+01
          0                 2           2             4    7     1      -0.1169381908E-02       4    7    1        -0.6289265592E-01      0.1766998790E+00
          0                 3           1             4    7     1       0.7957049236E-04       4    7    1         0.4399151340E-02      0.1236373214E-01

    ------------------------------------------------
       NWT REQUIRED            3 OUTER ITERATIONS 
       AND A TOTAL OF          5 INNER ITERATIONS.
    ------------------------------------------------

 NO OUTPUT CONTROL FOR STRESS PERIOD   39   TIME STEP   29
 
 SOLVING FOR HEAD 
                                                   Max.-Head-Change                         Max.-Flux-Residual
  Residual-Control   Outer-Iter.   Inner-Iter.     Column Row Layer    Maximum-Head-Change  Column Row Layer    Maximum-Flux-Residual          L2-NORM 
          0                 1           2             4    7     1       0.1194616855E-01       4    7    1         0.6249613307E+00      0.1758227310E+01
          0                 2           2             4    7     1      -0.1161408064E-02       4    7    1        -0.6246222036E-01      0.1757690806E+00
          0                 3           1             4    7     1       0.7902791214E-04       4    7    1         0.4369043607E-02      0.1229860794E-01

    ------------------------------------------------
       NWT REQUIRED            3 OUTER ITERATIONS 
       AND A TOTAL OF          5 INNER ITERATIONS.
    ------------------------------------------------

 NO OUTPUT CONTROL FOR STRESS PERIOD   39   TIME STEP   30



 STREAM LISTING     PERIOD     39   STEP       30

 LAYER ROW COL. STREAM  RCH.  FLOW INTO     FLOW TO   FLOW OUT OF   OVRLND.     DIRECT     STREAM       STREAM     STREAM     STREAM   STREAMBED  STREAMBED
                SEG.NO.  NO.  STRM. RCH.    AQUIFER    STRM. RCH.    RUNOFF     PRECIP       ET          HEAD       DEPTH      WIDTH   CONDCTNC.   GRADIENT

   1    1    1     1     1    1.9000E+01  2.1427E-01   1.8786E+01  0.000E+00  0.000E+00  0.000E+00  1.09413E+03  1.082E+00  1.166E+01  5.249E-02  1.361E+00
   1    2    2     1     2    1.8786E+01  3.3054E-01   1.8455E+01  0.000E+00  0.000E+00  0.000E+00  1.08914E+03  1.077E+00  1.158E+01  8.107E-02  1.359E+00
   1    3    3     1     3    1.8455E+01  2.8064E-01   1.8175E+01  0.000E+00  0.000E+00  0.000E+00  1.08349E+03  1.072E+00  1.149E+01  6.892E-02  1.357E+00
   1    3    4     1     4    1.8175E+01  2.5740E-01   1.7917E+01  0.000E+00  0.000E+00  0.000E+00  1.07848E+03  1.068E+00  1.140E+01  6.328E-02  1.356E+00
   1    4    5     2     1    1.5917E+01  3.0542E-01   1.5612E+01  0.000E+00  0.000E+00  0.000E+00  1.07285E+03  9.157E-01  1.200E+01  7.800E-02  1.305E+00
   1    5    6     2     2    1.5612E+01  2.3438E-01   1.5377E+01  0.000E+00  0.000E+00  0.000E+00  1.06742E+03  9.063E-01  1.200E+01  6.000E-02  1.302E+00
   1    6    6     2     3    1.5377E+01  2.3388E-01   1.5143E+01  0.000E+00  0.000E+00  0.000E+00  1.06269E+03  8.980E-01  1.200E+01  6.000E-02  1.299E+00
   1    7    6     2     4    1.5143E+01  2.3338E-01   1.4910E+01  0.000E+00  0.000E+00  0.000E+00  1.05797E+03  8.897E-01  1.200E+01  6.000E-02  1.297E+00
   1    8    6     2     5    1.4910E+01  2.3289E-01   1.4677E+01  0.000E+00  0.000E+00  0.000E+00  1.05324E+03  8.814E-01  1.200E+01  6.000E-02  1.294E+00
   1    3    5     3     1    2.0000E+00  2.8252E-01   1.7175E+00  0.000E+00  0.000E+00  0.000E+00  1.07555E+03  1.909E+00  9.636E+00  7.227E-02  1.955E+00
   1    3    6     3     2    1.7175E+00  2.4905E-01   1.4684E+00  0.000E+00  0.000E+00  0.000E+00  1.07264E+03  1.727E+00  8.909E+00  6.682E-02  1.864E+00
   1    3    7     3     3    1.4684E+00  1.9718E-01   1.2712E+00  0.000E+00  0.000E+00  0.000E+00  1.06987E+03  1.555E+00  8.218E+00  5.547E-02  1.777E+00
   1    4    8     3     4    1.2712E+00  2.2567E-01   1.0456E+00  0.000E+00  0.000E+00  0.000E+00  1.06682E+03  1.364E+00  7.455E+00  6.709E-02  1.682E+00
   1    5    8     3     5    1.0456E+00  1.5790E-01   8.8768E-01  0.000E+00  0.000E+00  0.000E+00  1.06362E+03  1.164E+00  6.655E+00  4.991E-02  1.582E+00
   1    6    8     3     6    8.8768E-01  5.5980E-02   8.3170E-01  0.000E+00  0.000E+00  0.000E+00  1.06158E+03  1.036E+00  6.145E+00  1.844E-02  1.518E+00
   1    5   10     4     1    1.0000E+01  9.0919E-02   9.9091E+00  0.000E+00  0.000E+00  0.000E+00  1.07836E+03  6.368E-01  1.000E+01  2.500E-02  1.212E+00
   1    5    9     4     2    9.9091E+00  1.8158E-01   9.7275E+00  0.000E+00  0.000E+00  0.000E+00  1.07154E+03  6.315E-01  1.000E+01  5.000E-02  1.211E+00
   1    6    8     4     3    9.7275E+00  1.2689E-01   9.6006E+00  0.000E+00  0.000E+00  0.000E+00  1.06381E+03  6.256E-01  1.000E+01  3.500E-02  1.209E+00
   1    6    8     5     1    1.0432E+01  2.2686E-01   1.0205E+01  0.000E+00  0.000E+00  0.000E+00  1.05868E+03  6.790E-01  1.542E+01  6.166E-02  1.226E+00
   1    7    7     5     2    1.0205E+01  2.7894E-01   9.9265E+00  0.000E+00  0.000E+00  0.000E+00  1.05417E+03  6.732E-01  1.519E+01  7.594E-02  1.224E+00
   1    8    7     5     3    9.9265E+00  1.9221E-01   9.7343E+00  0.000E+00  0.000E+00  0.000E+00  1.04992E+03  6.676E-01  1.497E+01  5.241E-02  1.223E+00
   1    8    6     5     4    9.7343E+00  1.3577E-01   9.5985E+00  0.000E+00  0.000E+00  0.000E+00  1.04691E+03  6.637E-01  1.482E+01  3.706E-02  1.221E+00
   1    9    6     6     1    2.4276E+01  2.5176E-01   2.4024E+01  0.000E+00  0.000E+00  0.000E+00  1.04392E+03  1.196E+00  1.200E+01  6.000E-02  1.399E+00
   1   10    7     6     2    2.4024E+01  2.5131E-01   2.3773E+01  0.000E+00  0.000E+00  0.000E+00  1.03937E+03  1.188E+00  1.200E+01  6.000E-02  1.396E+00
   1   11    7     6     3    2.3773E+01  2.5086E-01   2.3522E+01  0.000E+00  0.000E+00  0.000E+00  1.03482E+03  1.181E+00  1.200E+01  6.000E-02  1.394E+00
   1   12    7     6     4    2.3522E+01  2.5041E-01   2.3271E+01  0.000E+00  0.000E+00  0.000E+00  1.03026E+03  1.173E+00  1.200E+01  6.000E-02  1.391E+00
   1   13    7     6     5    2.3271E+01  9.8301E-03   2.3262E+01  0.000E+00  0.000E+00  0.000E+00  1.02708E+03  1.170E+00  1.200E+01  2.400E-02  1.365E-01
   1   14    9     7     1    1.5000E+02  1.3642E+00   1.4864E+02  0.000E+00  0.000E+00  0.000E+00  1.03987E+03  2.288E+00  5.529E+01  5.593E-01  8.130E-01
   1   13    8     7     2    1.4864E+02  1.9510E+00   1.4668E+02  0.000E+00  0.000E+00  0.000E+00  1.03478E+03  2.279E+00  5.525E+01  6.148E-01  1.058E+00
   1   13    7     7     3    1.4668E+02  1.6860E+00   1.4500E+02  0.000E+00  0.000E+00  0.000E+00  1.02969E+03  2.269E+00  5.521E+01  5.584E-01  1.006E+00
   1   13    6     8     1    1.6826E+02  1.1267E+00   1.6713E+02  0.000E+00  0.000E+00  0.000E+00  1.02481E+03  2.937E+00  4.259E+01  4.340E-01  8.654E-01
   1   13    5     8     2    1.6713E+02  3.6980E-01   1.6676E+02  0.000E+00  0.000E+00  0.000E+00  1.01856E+03  2.932E+00  4.252E+01  4.333E-01  2.845E-01
   1   13    4     8     3    1.6676E+02 -1.7766E+00   1.6854E+02  0.000E+00  0.000E+00  0.000E+00  1.01231E+03  2.937E+00  4.258E+01  4.339E+00 -1.365E-01
   1   13    3     8     4    1.6854E+02 -3.3319E+00   1.7187E+02  0.000E+00  0.000E+00  0.000E+00  1.00608E+03  2.954E+00  4.283E+01  4.364E+00 -2.545E-01
   1   13    2     8     5    1.7187E+02 -2.5020E+00   1.7437E+02  0.000E+00  0.000E+00  0.000E+00  9.99847E+02  2.972E+00  4.310E+01  4.392E+00 -1.899E-01
   1   13    1     8     6    1.7437E+02 -1.9637E+00   1.7634E+02  0.000E+00  0.000E+00  0.000E+00  9.94862E+02  2.987E+00  4.331E+01  2.648E+00 -2.472E-01





UNSATURATED ZONE PACKAGE VOLUMETRIC BUDGET FOR  TIME STEP    30 STRESS PERIOD   39
  ------------------------------------------------------------------------------



     CUMULATIVE VOLUMES      L**3       RATES FOR THIS TIME STEP      L**3/T
     ------------------                 ------------------------

           IN:                                      IN:
           ---                                      ---
        INFILTRATION =  1513605484.0426          INFILTRATION =           0.8475

          OUT:                                     OUT:
          ----                                     ----
              UZF ET =  1295339773.7840                UZF ET =           0.7500
        UZF RECHARGE =   217165475.1144          UZF RECHARGE =           0.0002

            IN - OUT =     1100235.1442              IN - OUT =       9.7342E-02

          STORAGE:                                 STORAGE:
          --------                                 --------
      STORAGE CHANGE =     1100253.3866        STORAGE CHANGE =       9.7342E-02

 PERCENT DISCREPANCY IS DIFFERENCE BETWEEN IN-OUT MINUS CHANGE IN STORAGE
 DIVIDED BY THE AVERAGE OF IN AND OUT TIMES 100

 PERCENT DISCREPANCY =           0.00     PERCENT DISCREPANCY =           0.00






1
  VOLUMETRIC BUDGET FOR AGRICULTURAL FIELDS AT  END OF TIME STEP   30, STRESS PERIOD  39
  ------------------------------------------------------------------------------

     CUMULATIVE VOLUMES      L**3       RATES FOR THIS TIME STEP      L**3/T
     ------------------                 ------------------------

           IN:                                      IN:
           ---                                      ---
               AG WELLS  =  1428831872.0000                 AG WELLS  =           0.0000
      DIVERSION SEGMENTS =           0.0000        DIVERSION SEGMENTS =           0.0000
           GW IRRIGATION =           0.0000             GW IRRIGATION =           0.0000
           SW IRRIGATION =           0.0000             SW IRRIGATION =           0.0000
        SYSTEM LOSSES GW =           0.0000          SYSTEM LOSSES GW =           0.0000
        SYSTEM LOSSES SW =           0.0000          SYSTEM LOSSES SW =           0.0000

                TOTAL IN =  1428831872.0000                  TOTAL IN =           0.0000

          OUT:                                     OUT:
          ----                                     ----
               AG WELLS  =           0.0000                 AG WELLS  =           0.0000
      DIVERSION SEGMENTS =           0.0000        DIVERSION SEGMENTS =           0.0000
           GW IRRIGATION =  1428831872.0000             GW IRRIGATION =           0.0000
           SW IRRIGATION =           0.0000             SW IRRIGATION =           0.0000
        SYSTEM LOSSES GW =           0.0000          SYSTEM LOSSES GW =           0.0000
        SYSTEM LOSSES SW =           0.0000          SYSTEM LOSSES SW =           0.0000

               TOTAL OUT =  1428831872.0000                 TOTAL OUT =           0.0000

                IN - OUT =           0.0000                  IN - OUT =           0.0000

     PERCENT DISCREPANCY =           0.00         PERCENT DISCREPANCY =           0.00



1
  VOLUMETRIC BUDGET FOR ENTIRE MODEL AT END OF TIME STEP   30, STRESS PERIOD  39
  ------------------------------------------------------------------------------

     CUMULATIVE VOLUMES      L**3       RATES FOR THIS TIME STEP      L**3/T
     ------------------                 ------------------------

           IN:                                      IN:
           ---                                      ---
             STORAGE     =  1870154752.0000               STORAGE     =           4.6458
       CONSTANT HEAD     =           0.0000         CONSTANT HEAD     =           0.0000
     HEAD DEP BOUNDS     =    28602976.0000       HEAD DEP BOUNDS     =           0.2877
      STREAM LEAKAGE     =  1225951232.0000        STREAM LEAKAGE     =          12.2362
        UZF RECHARGE     =   217165328.0000          UZF RECHARGE     =       1.5771E-04
               GW ET     =           0.0000                 GW ET     =           0.0000
     SURFACE LEAKAGE     =           0.0000       SURFACE LEAKAGE     =           0.0000
           AG WELLS      =           0.0000             AG WELLS      =           0.0000

                TOTAL IN =  3341874176.0000                  TOTAL IN =          17.1698

          OUT:                                     OUT:
          ----                                     ----
             STORAGE     =   845705664.0000               STORAGE     =           7.3074
       CONSTANT HEAD     =           0.0000         CONSTANT HEAD     =           0.0000
     HEAD DEP BOUNDS     =    29232432.0000       HEAD DEP BOUNDS     =           0.2889
      STREAM LEAKAGE     =  1020597184.0000        STREAM LEAKAGE     =           9.5742
        UZF RECHARGE     =           0.0000          UZF RECHARGE     =           0.0000
               GW ET     =    17516202.0000                 GW ET     =           0.0000
     SURFACE LEAKAGE     =           0.0000       SURFACE LEAKAGE     =           0.0000
           AG WELLS      =  1428831872.0000             AG WELLS      =           0.0000

               TOTAL OUT =  3341883392.0000                 TOTAL OUT =          17.1706

                IN - OUT =       -9216.0000                  IN - OUT =      -7.5722E-04

     PERCENT DISCREPANCY =          -0.00         PERCENT DISCREPANCY =          -0.00






         TIME SUMMARY AT END OF TIME STEP   30 IN STRESS PERIOD   39
                    SECONDS     MINUTES      HOURS       DAYS        YEARS
                    -----------------------------------------------------------
   TIME STEP LENGTH  87667.      1461.1      24.352      1.0147     2.77799E-03
 STRESS PERIOD TIME 2.63000E+06  43833.      730.56      30.440     8.33397E-02
         TOTAL TIME 1.00026E+08 1.66710E+06  27785.      1157.7      3.1696    
1
1
                            STRESS PERIOD NO.   40, LENGTH =   2630000.    
                            -----------------------------------------------

                              NUMBER OF TIME STEPS =    30

                               MULTIPLIER FOR DELT =     1.000

                            INITIAL TIME STEP SIZE =   87666.66    

 REUSING NON-PARAMETER GHB CELLS FROM LAST STRESS PERIOD

      2 GHB CELLS

 REUSING STREAM SEGMENT DATA FROM LAST STRESS PERIOD



            AREAL INFILTRATION RATE
 READING ON UNIT   19 WITH FORMAT: (FREE)              

            1           2           3           4           5           6           7           8           9          10
 ........................................................................................................................
   1   1.0000E-10  2.0000E-10   0.000       0.000       0.000       0.000       0.000       0.000       0.000       0.000    
   2   2.0000E-10  1.0000E-10  2.0000E-10   0.000       0.000      8.0000E-10  8.0000E-10  5.0000E-10   0.000       0.000    
   3    0.000      5.0000E-10  1.0000E-10  1.0000E-10  8.0000E-10  8.0000E-10  5.0000E-10  5.0000E-10   0.000       0.000    
   4   8.0000E-10  5.0000E-10  1.0000E-10  1.0000E-10  1.0000E-10  1.0000E-10  1.0000E-10  1.0000E-10  2.0000E-10   0.000    
   5   8.0000E-10  5.0000E-10  1.0000E-10  1.0000E-10  1.0000E-10  1.0000E-10  1.0000E-10  1.0000E-10  1.0000E-10  1.0000E-10
   6   8.0000E-10  5.0000E-10  5.0000E-10  2.0000E-10  2.0000E-10  1.0000E-10  1.0000E-10  1.0000E-10  1.0000E-10  5.0000E-10
   7   8.0000E-10  5.0000E-10  5.0000E-10  2.0000E-10  2.0000E-10  1.0000E-10  1.0000E-10  2.0000E-10  2.0000E-10   0.000    
   8    0.000      5.0000E-10  5.0000E-10  2.0000E-10  2.0000E-10  1.0000E-10  1.0000E-10  2.0000E-10  5.0000E-10   0.000    
   9    0.000      5.0000E-10  5.0000E-10  2.0000E-10  2.0000E-10  1.0000E-10  1.0000E-10  2.0000E-10  5.0000E-10   0.000    
  10    0.000      5.0000E-10  5.0000E-10  2.0000E-10  2.0000E-10  1.0000E-10  1.0000E-10  2.0000E-10  5.0000E-10  8.0000E-10
  11    0.000      1.0000E-10  1.0000E-10  1.0000E-10  1.0000E-10  1.0000E-10  1.0000E-10  2.0000E-10  5.0000E-10   0.000    
  12   1.0000E-10  1.0000E-10  1.0000E-10  1.0000E-10  1.0000E-10  1.0000E-10  1.0000E-10  1.0000E-10  2.0000E-10   0.000    
  13   1.0000E-10  1.0000E-10  2.0000E-10  2.0000E-10  2.0000E-10  2.0000E-10  2.0000E-10  1.0000E-10  1.0000E-10   0.000    
  14    0.000      2.0000E-10  5.0000E-10  5.0000E-10  5.0000E-10  5.0000E-10  5.0000E-10  2.0000E-10  1.0000E-10   0.000    
  15    0.000       0.000      8.0000E-10  8.0000E-10  8.0000E-10  8.0000E-10   0.000       0.000       0.000       0.000    

                  ET RATE =  5.000000E-10

 USING ET EXTINCTION DEPTH FROM PREVIOUS STRESS PERIOD. CURRENT PERIOD IS:      40

 USING EXTINCTION WATER CONTENT FROM PREVIOUS STRESS PERIOD. CURRENT PERIOD IS:      40

 USING AIR ENTRY PRESSURE FROM PREVIOUS STRESS PERIOD. CURRENT PERIOD IS:      40

 USING ROOT PRESSURE HEAD FROM PREVIOUS STRESS PERIOD. CURRENT PERIOD IS:      40

 USING ROOT ACTIVITY FROM PREVIOUS STRESS PERIOD. CURRENT PERIOD IS:      40

 PROCESSING AG STRESS PERIOD DATA

 READING AG STRESS PERIOD DATA

 READING IRRIGATION WELL

 END PROCESSING AG STRESS PERIOD DATA OPTIONS
 
 SOLVING FOR HEAD 
                                                   Max.-Head-Change                         Max.-Flux-Residual
  Residual-Control   Outer-Iter.   Inner-Iter.     Column Row Layer    Maximum-Head-Change  Column Row Layer    Maximum-Flux-Residual          L2-NORM 
          0                 1           2             4    7     1       0.1186503452E-01       4    7    1         0.6207014812E+00      0.1749009306E+01
          0                 2           2             4    7     1      -0.1153520172E-02       4    7    1        -0.6203646423E-01      0.1748476904E+00
          0                 3           1             4    7     1       0.7849118083E-04       4    7    1         0.4339263186E-02      0.1223416746E-01

    ------------------------------------------------
       NWT REQUIRED            3 OUTER ITERATIONS 
       AND A TOTAL OF          5 INNER ITERATIONS.
    ------------------------------------------------

 NO OUTPUT CONTROL FOR STRESS PERIOD   40   TIME STEP    1
 
 SOLVING FOR HEAD 
                                                   Max.-Head-Change                         Max.-Flux-Residual
  Residual-Control   Outer-Iter.   Inner-Iter.     Column Row Layer    Maximum-Head-Change  Column Row Layer    Maximum-Flux-Residual          L2-NORM 
          0                 1           2             4    7     1       0.1178476960E-01       4    7    1         0.6164874709E+00      0.1739883559E+01
          0                 2           2             4    7     1      -0.1145716778E-02       4    7    1        -0.6161528964E-01      0.1739355417E+00
          0                 3           1             4    7     1       0.7796019926E-04       4    7    1         0.4309803234E-02      0.1217035540E-01

    ------------------------------------------------
       NWT REQUIRED            3 OUTER ITERATIONS 
       AND A TOTAL OF          5 INNER ITERATIONS.
    ------------------------------------------------

 NO OUTPUT CONTROL FOR STRESS PERIOD   40   TIME STEP    2
 
 SOLVING FOR HEAD 
                                                   Max.-Head-Change                         Max.-Flux-Residual
  Residual-Control   Outer-Iter.   Inner-Iter.     Column Row Layer    Maximum-Head-Change  Column Row Layer    Maximum-Flux-Residual          L2-NORM 
          0                 1           2             4    7     1       0.1170536176E-01       4    7    1         0.6123185229E+00      0.1730855656E+01
          0                 2           2             4    7     1      -0.1137996709E-02       4    7    1        -0.6119861888E-01      0.1730331307E+00
          0                 3           1             4    7     1       0.7743488672E-04       4    7    1         0.4280658296E-02      0.1210723574E-01

    ------------------------------------------------
       NWT REQUIRED            3 OUTER ITERATIONS 
       AND A TOTAL OF          5 INNER ITERATIONS.
    ------------------------------------------------

 NO OUTPUT CONTROL FOR STRESS PERIOD   40   TIME STEP    3
 
 SOLVING FOR HEAD 
                                                   Max.-Head-Change                         Max.-Flux-Residual
  Residual-Control   Outer-Iter.   Inner-Iter.     Column Row Layer    Maximum-Head-Change  Column Row Layer    Maximum-Flux-Residual          L2-NORM 
          0                 1           2             4    7     1       0.1162666068E-01       4    7    1         0.6081866915E+00      0.1721902459E+01
          0                 2           2             4    7     1      -0.1130345352E-02       4    7    1        -0.6078565780E-01      0.1721382249E+00
          0                 3           1             4    7     1       0.7691425072E-04       4    7    1         0.4251772869E-02      0.1204462118E-01

    ------------------------------------------------
       NWT REQUIRED            3 OUTER ITERATIONS 
       AND A TOTAL OF          5 INNER ITERATIONS.
    ------------------------------------------------

 NO OUTPUT CONTROL FOR STRESS PERIOD   40   TIME STEP    4
 
 SOLVING FOR HEAD 
                                                   Max.-Head-Change                         Max.-Flux-Residual
  Residual-Control   Outer-Iter.   Inner-Iter.     Column Row Layer    Maximum-Head-Change  Column Row Layer    Maximum-Flux-Residual          L2-NORM 
          0                 1           2             4    7     1       0.1154879734E-01       4    7    1         0.6040988253E+00      0.1713051009E+01
          0                 2           2             4    7     1      -0.1122775441E-02       4    7    1        -0.6037709087E-01      0.1712535061E+00
          0                 3           1             4    7     1       0.7639915596E-04       4    7    1         0.4223194776E-02      0.1198274115E-01

    ------------------------------------------------
       NWT REQUIRED            3 OUTER ITERATIONS 
       AND A TOTAL OF          5 INNER ITERATIONS.
    ------------------------------------------------

 NO OUTPUT CONTROL FOR STRESS PERIOD   40   TIME STEP    5
 
 SOLVING FOR HEAD 
                                                   Max.-Head-Change                         Max.-Flux-Residual
  Residual-Control   Outer-Iter.   Inner-Iter.     Column Row Layer    Maximum-Head-Change  Column Row Layer    Maximum-Flux-Residual          L2-NORM 
          0                 1           2             4    7     1       0.1147175436E-01       4    7    1         0.6000543951E+00      0.1704281001E+01
          0                 2           2             4    7     1      -0.1115285286E-02       4    7    1        -0.5997286528E-01      0.1703768696E+00
          0                 3           1             4    7     1       0.7588948871E-04       4    7    1         0.4194920357E-02      0.1192139792E-01

    ------------------------------------------------
       NWT REQUIRED            3 OUTER ITERATIONS 
       AND A TOTAL OF          5 INNER ITERATIONS.
    ------------------------------------------------

 NO OUTPUT CONTROL FOR STRESS PERIOD   40   TIME STEP    6
 
 SOLVING FOR HEAD 
                                                   Max.-Head-Change                         Max.-Flux-Residual
  Residual-Control   Outer-Iter.   Inner-Iter.     Column Row Layer    Maximum-Head-Change  Column Row Layer    Maximum-Flux-Residual          L2-NORM 
          0                 1           2             4    7     1       0.1139551766E-01       4    7    1         0.5960524986E+00      0.1695599471E+01
          0                 2           2             4    7     1      -0.1107873518E-02       4    7    1        -0.5957289080E-01      0.1695090905E+00
          0                 3           1             4    7     1       0.7538515501E-04       4    7    1         0.4166943283E-02      0.1186069925E-01

    ------------------------------------------------
       NWT REQUIRED            3 OUTER ITERATIONS 
       AND A TOTAL OF          5 INNER ITERATIONS.
    ------------------------------------------------

 NO OUTPUT CONTROL FOR STRESS PERIOD   40   TIME STEP    7
 
 SOLVING FOR HEAD 
                                                   Max.-Head-Change                         Max.-Flux-Residual
  Residual-Control   Outer-Iter.   Inner-Iter.     Column Row Layer    Maximum-Head-Change  Column Row Layer    Maximum-Flux-Residual          L2-NORM 
          0                 1           2             4    7     1       0.1132007804E-01       4    7    1         0.5920924067E+00      0.1687008252E+01
          0                 2           2             4    7     1      -0.1100539243E-02       4    7    1        -0.5917709454E-01      0.1686503571E+00
          0                 3           1             4    7     1       0.7488609451E-04       4    7    1         0.4139258476E-02      0.1180061640E-01

    ------------------------------------------------
       NWT REQUIRED            3 OUTER ITERATIONS 
       AND A TOTAL OF          5 INNER ITERATIONS.
    ------------------------------------------------

 NO OUTPUT CONTROL FOR STRESS PERIOD   40   TIME STEP    8
 
 SOLVING FOR HEAD 
                                                   Max.-Head-Change                         Max.-Flux-Residual
  Residual-Control   Outer-Iter.   Inner-Iter.     Column Row Layer    Maximum-Head-Change  Column Row Layer    Maximum-Flux-Residual          L2-NORM 
          0                 1           2             4    7     1       0.1124542136E-01       4    7    1         0.5881736417E+00      0.1678497515E+01
          0                 2           2             4    7     1      -0.1093281086E-02       4    7    1        -0.5878542880E-01      0.1677996545E+00
          0                 3           1             4    7     1       0.7439221360E-04       4    7    1         0.4111862589E-02      0.1174110230E-01

    ------------------------------------------------
       NWT REQUIRED            3 OUTER ITERATIONS 
       AND A TOTAL OF          5 INNER ITERATIONS.
    ------------------------------------------------

 NO OUTPUT CONTROL FOR STRESS PERIOD   40   TIME STEP    9
 
 SOLVING FOR HEAD 
                                                   Max.-Head-Change                         Max.-Flux-Residual
  Residual-Control   Outer-Iter.   Inner-Iter.     Column Row Layer    Maximum-Head-Change  Column Row Layer    Maximum-Flux-Residual          L2-NORM 
          0                 1           2             4    7     1       0.1117140144E-01       4    7    1         0.5842881479E+00      0.1670070302E+01
          0                 2           2             4    7     1      -0.1086084836E-02       4    7    1        -0.5839708838E-01      0.1669573140E+00
          0                 3           1             4    7     1       0.7390254465E-04       4    7    1         0.4084699292E-02      0.1168218986E-01

    ------------------------------------------------
       NWT REQUIRED            3 OUTER ITERATIONS 
       AND A TOTAL OF          5 INNER ITERATIONS.
    ------------------------------------------------

 NO OUTPUT CONTROL FOR STRESS PERIOD   40   TIME STEP   10
 
 SOLVING FOR HEAD 
                                                   Max.-Head-Change                         Max.-Flux-Residual
  Residual-Control   Outer-Iter.   Inner-Iter.     Column Row Layer    Maximum-Head-Change  Column Row Layer    Maximum-Flux-Residual          L2-NORM 
          0                 1           2             4    7     1       0.1109828192E-01       4    7    1         0.5804503151E+00      0.1661727203E+01
          0                 2           2             4    7     1      -0.1078976123E-02       4    7    1        -0.5801351155E-01      0.1661229182E+00
          0                 3           1             4    7     1       0.7341883229E-04       4    7    1         0.4057869190E-02      0.1162336768E-01

    ------------------------------------------------
       NWT REQUIRED            3 OUTER ITERATIONS 
       AND A TOTAL OF          5 INNER ITERATIONS.
    ------------------------------------------------

 NO OUTPUT CONTROL FOR STRESS PERIOD   40   TIME STEP   11
 
 SOLVING FOR HEAD 
                                                   Max.-Head-Change                         Max.-Flux-Residual
  Residual-Control   Outer-Iter.   Inner-Iter.     Column Row Layer    Maximum-Head-Change  Column Row Layer    Maximum-Flux-Residual          L2-NORM 
          0                 1           2             4    7     1       0.1102577649E-01       4    7    1         0.5766445202E+00      0.1653462339E+01
          0                 2           2             4    7     1      -0.1071927113E-02       4    7    1        -0.5763313677E-01      0.1652972691E+00
          0                 3           1             4    7     1       0.7293918266E-04       4    7    1         0.4031263067E-02      0.1156604715E-01

    ------------------------------------------------
       NWT REQUIRED            3 OUTER ITERATIONS 
       AND A TOTAL OF          5 INNER ITERATIONS.
    ------------------------------------------------

 NO OUTPUT CONTROL FOR STRESS PERIOD   40   TIME STEP   12
 
 SOLVING FOR HEAD 
                                                   Max.-Head-Change                         Max.-Flux-Residual
  Residual-Control   Outer-Iter.   Inner-Iter.     Column Row Layer    Maximum-Head-Change  Column Row Layer    Maximum-Flux-Residual          L2-NORM 
          0                 1           2             4    7     1       0.1095401147E-01       4    7    1         0.5728778880E+00      0.1645278275E+01
          0                 2           2             4    7     1      -0.1064950085E-02       4    7    1        -0.5725667622E-01      0.1644792333E+00
          0                 3           1             4    7     1       0.7246443111E-04       4    7    1         0.4004930741E-02      0.1150881752E-01

    ------------------------------------------------
       NWT REQUIRED            3 OUTER ITERATIONS 
       AND A TOTAL OF          5 INNER ITERATIONS.
    ------------------------------------------------

 NO OUTPUT CONTROL FOR STRESS PERIOD   40   TIME STEP   13
 
 SOLVING FOR HEAD 
                                                   Max.-Head-Change                         Max.-Flux-Residual
  Residual-Control   Outer-Iter.   Inner-Iter.     Column Row Layer    Maximum-Head-Change  Column Row Layer    Maximum-Flux-Residual          L2-NORM 
          0                 1           2             4    7     1       0.1088311151E-01       4    7    1         0.5691569676E+00      0.1637177256E+01
          0                 2           2             4    7     1      -0.1058057160E-02       4    7    1        -0.5688478439E-01      0.1636694617E+00
          0                 3           1             4    7     1       0.7199540219E-04       4    7    1         0.3978917968E-02      0.1145216635E-01

    ------------------------------------------------
       NWT REQUIRED            3 OUTER ITERATIONS 
       AND A TOTAL OF          5 INNER ITERATIONS.
    ------------------------------------------------

 NO OUTPUT CONTROL FOR STRESS PERIOD   40   TIME STEP   14
 
 SOLVING FOR HEAD 
                                                   Max.-Head-Change                         Max.-Flux-Residual
  Residual-Control   Outer-Iter.   Inner-Iter.     Column Row Layer    Maximum-Head-Change  Column Row Layer    Maximum-Flux-Residual          L2-NORM 
          0                 1           2             4    7     1       0.1081278922E-01       4    7    1         0.5654662529E+00      0.1629151263E+01
          0                 2           2             4    7     1      -0.1051220396E-02       4    7    1        -0.5651591157E-01      0.1628672020E+00
          0                 3           1             4    7     1       0.7153019449E-04       4    7    1         0.3953116369E-02      0.1139603354E-01

    ------------------------------------------------
       NWT REQUIRED            3 OUTER ITERATIONS 
       AND A TOTAL OF          5 INNER ITERATIONS.
    ------------------------------------------------

 NO OUTPUT CONTROL FOR STRESS PERIOD   40   TIME STEP   15
 
 SOLVING FOR HEAD 
                                                   Max.-Head-Change                         Max.-Flux-Residual
  Residual-Control   Outer-Iter.   Inner-Iter.     Column Row Layer    Maximum-Head-Change  Column Row Layer    Maximum-Flux-Residual          L2-NORM 
          0                 1           2             4    7     1       0.1074317365E-01       4    7    1         0.5618128125E+00      0.1621197055E+01
          0                 2           2             4    7     1      -0.1044452340E-02       4    7    1        -0.5615076416E-01      0.1620721584E+00
          0                 3           1             4    7     1       0.7106966215E-04       4    7    1         0.3927575369E-02      0.1134043045E-01

    ------------------------------------------------
       NWT REQUIRED            3 OUTER ITERATIONS 
       AND A TOTAL OF          5 INNER ITERATIONS.
    ------------------------------------------------

 NO OUTPUT CONTROL FOR STRESS PERIOD   40   TIME STEP   16
 
 SOLVING FOR HEAD 
                                                   Max.-Head-Change                         Max.-Flux-Residual
  Residual-Control   Outer-Iter.   Inner-Iter.     Column Row Layer    Maximum-Head-Change  Column Row Layer    Maximum-Flux-Residual          L2-NORM 
          0                 1           2             4    7     1       0.1067425590E-01       4    7    1         0.5581960140E+00      0.1613322714E+01
          0                 2           2             4    7     1      -0.1037752127E-02       4    7    1        -0.5578927899E-01      0.1612850601E+00
          0                 3           1             4    7     1       0.7061374647E-04       4    7    1         0.3902290523E-02      0.1128535162E-01

    ------------------------------------------------
       NWT REQUIRED            3 OUTER ITERATIONS 
       AND A TOTAL OF          5 INNER ITERATIONS.
    ------------------------------------------------

 NO OUTPUT CONTROL FOR STRESS PERIOD   40   TIME STEP   17
 
 SOLVING FOR HEAD 
                                                   Max.-Head-Change                         Max.-Flux-Residual
  Residual-Control   Outer-Iter.   Inner-Iter.     Column Row Layer    Maximum-Head-Change  Column Row Layer    Maximum-Flux-Residual          L2-NORM 
          0                 1           2             4    7     1       0.1060602924E-01       4    7    1         0.5546153967E+00      0.1605527655E+01
          0                 2           2             4    7     1      -0.1031119102E-02       4    7    1        -0.5543141001E-01      0.1605059027E+00
          0                 3           1             4    7     1       0.7016240226E-04       4    7    1         0.3877258609E-02      0.1123086112E-01

    ------------------------------------------------
       NWT REQUIRED            3 OUTER ITERATIONS 
       AND A TOTAL OF          5 INNER ITERATIONS.
    ------------------------------------------------

 NO OUTPUT CONTROL FOR STRESS PERIOD   40   TIME STEP   18
 
 SOLVING FOR HEAD 
                                                   Max.-Head-Change                         Max.-Flux-Residual
  Residual-Control   Outer-Iter.   Inner-Iter.     Column Row Layer    Maximum-Head-Change  Column Row Layer    Maximum-Flux-Residual          L2-NORM 
          0                 1           2             4    7     1       0.1053847699E-01       4    7    1         0.5510706110E+00      0.1597801186E+01
          0                 2           2             4    7     1      -0.1024551644E-02       4    7    1        -0.5507712229E-01      0.1597335703E+00
          0                 3           1             4    7     1       0.6971551969E-04       4    7    1         0.3852477209E-02      0.1117682438E-01

    ------------------------------------------------
       NWT REQUIRED            3 OUTER ITERATIONS 
       AND A TOTAL OF          5 INNER ITERATIONS.
    ------------------------------------------------

 NO OUTPUT CONTROL FOR STRESS PERIOD   40   TIME STEP   19
 
 SOLVING FOR HEAD 
                                                   Max.-Head-Change                         Max.-Flux-Residual
  Residual-Control   Outer-Iter.   Inner-Iter.     Column Row Layer    Maximum-Head-Change  Column Row Layer    Maximum-Flux-Residual          L2-NORM 
          0                 1           2             4    7     1       0.1047159267E-01       4    7    1         0.5475607923E+00      0.1590154658E+01
          0                 2           2             4    7     1      -0.1018049123E-02       4    7    1        -0.5472632940E-01      0.1589692731E+00
          0                 3           1             4    7     1       0.6927305581E-04       4    7    1         0.3827940263E-02      0.1112335143E-01

    ------------------------------------------------
       NWT REQUIRED            3 OUTER ITERATIONS 
       AND A TOTAL OF          5 INNER ITERATIONS.
    ------------------------------------------------

 NO OUTPUT CONTROL FOR STRESS PERIOD   40   TIME STEP   20
 
 SOLVING FOR HEAD 
                                                   Max.-Head-Change                         Max.-Flux-Residual
  Residual-Control   Outer-Iter.   Inner-Iter.     Column Row Layer    Maximum-Head-Change  Column Row Layer    Maximum-Flux-Residual          L2-NORM 
          0                 1           2             4    7     1       0.1040536792E-01       4    7    1         0.5440856049E+00      0.1582579095E+01
          0                 2           2             4    7     1      -0.1011610725E-02       4    7    1        -0.5437899780E-01      0.1582120536E+00
          0                 3           1             4    7     1       0.6883495548E-04       4    7    1         0.3803645430E-02      0.1107039773E-01

    ------------------------------------------------
       NWT REQUIRED            3 OUTER ITERATIONS 
       AND A TOTAL OF          5 INNER ITERATIONS.
    ------------------------------------------------

 NO OUTPUT CONTROL FOR STRESS PERIOD   40   TIME STEP   21
 
 SOLVING FOR HEAD 
                                                   Max.-Head-Change                         Max.-Flux-Residual
  Residual-Control   Outer-Iter.   Inner-Iter.     Column Row Layer    Maximum-Head-Change  Column Row Layer    Maximum-Flux-Residual          L2-NORM 
          0                 1           2             4    7     1       0.1033978944E-01       4    7    1         0.5406446150E+00      0.1575069637E+01
          0                 2           2             4    7     1      -0.1005235158E-02       4    7    1        -0.5403508415E-01      0.1574614461E+00
          0                 3           1             4    7     1       0.6840112983E-04       4    7    1         0.3779589657E-02      0.1101787895E-01

    ------------------------------------------------
       NWT REQUIRED            3 OUTER ITERATIONS 
       AND A TOTAL OF          5 INNER ITERATIONS.
    ------------------------------------------------

 NO OUTPUT CONTROL FOR STRESS PERIOD   40   TIME STEP   22
 
 SOLVING FOR HEAD 
                                                   Max.-Head-Change                         Max.-Flux-Residual
  Residual-Control   Outer-Iter.   Inner-Iter.     Column Row Layer    Maximum-Head-Change  Column Row Layer    Maximum-Flux-Residual          L2-NORM 
          0                 1           2             4    7     1       0.1027484836E-01       4    7    1         0.5372371325E+00      0.1567634380E+01
          0                 2           2             4    7     1      -0.9989215605E-03       4    7    1        -0.5369451945E-01      0.1567182507E+00
          0                 3           1             4    7     1       0.6797152121E-04       4    7    1         0.3755768136E-02      0.1096588772E-01

    ------------------------------------------------
       NWT REQUIRED            3 OUTER ITERATIONS 
       AND A TOTAL OF          5 INNER ITERATIONS.
    ------------------------------------------------

 NO OUTPUT CONTROL FOR STRESS PERIOD   40   TIME STEP   23
 
 SOLVING FOR HEAD 
                                                   Max.-Head-Change                         Max.-Flux-Residual
  Residual-Control   Outer-Iter.   Inner-Iter.     Column Row Layer    Maximum-Head-Change  Column Row Layer    Maximum-Flux-Residual          L2-NORM 
          0                 1           2             4    7     1       0.1021053746E-01       4    7    1         0.5338626986E+00      0.1560270051E+01
          0                 2           2             4    7     1      -0.9926692283E-03       4    7    1        -0.5335725783E-01      0.1559821426E+00
          0                 3           1             4    7     1       0.6754608113E-04       4    7    1         0.3732177647E-02      0.1091438913E-01

    ------------------------------------------------
       NWT REQUIRED            3 OUTER ITERATIONS 
       AND A TOTAL OF          5 INNER ITERATIONS.
    ------------------------------------------------

 NO OUTPUT CONTROL FOR STRESS PERIOD   40   TIME STEP   24
 
 SOLVING FOR HEAD 
                                                   Max.-Head-Change                         Max.-Flux-Residual
  Residual-Control   Outer-Iter.   Inner-Iter.     Column Row Layer    Maximum-Head-Change  Column Row Layer    Maximum-Flux-Residual          L2-NORM 
          0                 1           2             4    7     1       0.1014684761E-01       4    7    1         0.5305209381E+00      0.1552973226E+01
          0                 2           2             4    7     1      -0.9864772755E-03       4    7    1        -0.5302326180E-01      0.1552527740E+00
          0                 3           1             4    7     1       0.6712475016E-04       4    7    1         0.3708815603E-02      0.1086337417E-01

    ------------------------------------------------
       NWT REQUIRED            3 OUTER ITERATIONS 
       AND A TOTAL OF          5 INNER ITERATIONS.
    ------------------------------------------------

 NO OUTPUT CONTROL FOR STRESS PERIOD   40   TIME STEP   25
 
 SOLVING FOR HEAD 
                                                   Max.-Head-Change                         Max.-Flux-Residual
  Residual-Control   Outer-Iter.   Inner-Iter.     Column Row Layer    Maximum-Head-Change  Column Row Layer    Maximum-Flux-Residual          L2-NORM 
          0                 1           2             4    7     1       0.1008376948E-01       4    7    1         0.5272113780E+00      0.1545742221E+01
          0                 2           2             4    7     1      -0.9803447951E-03       4    7    1        -0.5269248412E-01      0.1545300051E+00
          0                 3           1             4    7     1       0.6670746572E-04       4    7    1         0.3685678649E-02      0.1081281829E-01

    ------------------------------------------------
       NWT REQUIRED            3 OUTER ITERATIONS 
       AND A TOTAL OF          5 INNER ITERATIONS.
    ------------------------------------------------

 NO OUTPUT CONTROL FOR STRESS PERIOD   40   TIME STEP   26
 
 SOLVING FOR HEAD 
                                                   Max.-Head-Change                         Max.-Flux-Residual
  Residual-Control   Outer-Iter.   Inner-Iter.     Column Row Layer    Maximum-Head-Change  Column Row Layer    Maximum-Flux-Residual          L2-NORM 
          0                 1           2             4    7     1       0.1002142669E-01       4    7    1         0.5239408604E+00      0.1538583843E+01
          0                 2           2             4    7     1      -0.9742838045E-03       4    7    1        -0.5236560863E-01      0.1538144924E+00
          0                 3           1             4    7     1       0.6629504550E-04       4    7    1         0.3662814655E-02      0.1076274755E-01

    ------------------------------------------------
       NWT REQUIRED            3 OUTER ITERATIONS 
       AND A TOTAL OF          5 INNER ITERATIONS.
    ------------------------------------------------

 NO OUTPUT CONTROL FOR STRESS PERIOD   40   TIME STEP   27
 
 SOLVING FOR HEAD 
                                                   Max.-Head-Change                         Max.-Flux-Residual
  Residual-Control   Outer-Iter.   Inner-Iter.     Column Row Layer    Maximum-Head-Change  Column Row Layer    Maximum-Flux-Residual          L2-NORM 
          0                 1           2             4    7     1       0.9959535900E-02       4    7    1         0.5206938172E+00      0.1531485814E+01
          0                 2           2             4    7     1      -0.9682667582E-03       4    7    1        -0.5204107930E-01      0.1531049737E+00
          0                 3           1             4    7     1       0.6588561565E-04       4    7    1         0.3640114764E-02      0.1071310706E-01

    ------------------------------------------------
       NWT REQUIRED            3 OUTER ITERATIONS 
       AND A TOTAL OF          5 INNER ITERATIONS.
    ------------------------------------------------

 NO OUTPUT CONTROL FOR STRESS PERIOD   40   TIME STEP   28
 
 SOLVING FOR HEAD 
                                                   Max.-Head-Change                         Max.-Flux-Residual
  Residual-Control   Outer-Iter.   Inner-Iter.     Column Row Layer    Maximum-Head-Change  Column Row Layer    Maximum-Flux-Residual          L2-NORM 
          0                 1           2             4    7     1       0.9898233743E-02       4    7    1         0.5174775354E+00      0.1524455878E+01
          0                 2           2             4    7     1      -0.9623069384E-03       4    7    1        -0.5171962445E-01      0.1524022972E+00
          0                 3           1             4    7     1       0.6548007967E-04       4    7    1         0.3617629915E-02      0.1066395556E-01

    ------------------------------------------------
       NWT REQUIRED            3 OUTER ITERATIONS 
       AND A TOTAL OF          5 INNER ITERATIONS.
    ------------------------------------------------

 NO OUTPUT CONTROL FOR STRESS PERIOD   40   TIME STEP   29
 
 SOLVING FOR HEAD 
                                                   Max.-Head-Change                         Max.-Flux-Residual
  Residual-Control   Outer-Iter.   Inner-Iter.     Column Row Layer    Maximum-Head-Change  Column Row Layer    Maximum-Flux-Residual          L2-NORM 
          0                 1           2             4    7     1       0.9837643938E-02       4    7    1         0.5142990992E+00      0.1517490601E+01
          0                 2           2             4    7     1      -0.9564163749E-03       4    7    1        -0.5140195216E-01      0.1517064886E+00
          0                 3           1             4    7     1       0.6507925632E-04       4    7    1         0.3595409666E-02      0.1061500711E-01

    ------------------------------------------------
       NWT REQUIRED            3 OUTER ITERATIONS 
       AND A TOTAL OF          5 INNER ITERATIONS.
    ------------------------------------------------

 NO OUTPUT CONTROL FOR STRESS PERIOD   40   TIME STEP   30



 STREAM LISTING     PERIOD     40   STEP       30

 LAYER ROW COL. STREAM  RCH.  FLOW INTO     FLOW TO   FLOW OUT OF   OVRLND.     DIRECT     STREAM       STREAM     STREAM     STREAM   STREAMBED  STREAMBED
                SEG.NO.  NO.  STRM. RCH.    AQUIFER    STRM. RCH.    RUNOFF     PRECIP       ET          HEAD       DEPTH      WIDTH   CONDCTNC.   GRADIENT

   1    1    1     1     1    1.9000E+01  2.1427E-01   1.8786E+01  0.000E+00  0.000E+00  0.000E+00  1.09413E+03  1.082E+00  1.166E+01  5.249E-02  1.361E+00
   1    2    2     1     2    1.8786E+01  3.3054E-01   1.8455E+01  0.000E+00  0.000E+00  0.000E+00  1.08914E+03  1.077E+00  1.158E+01  8.107E-02  1.359E+00
   1    3    3     1     3    1.8455E+01  2.8064E-01   1.8175E+01  0.000E+00  0.000E+00  0.000E+00  1.08349E+03  1.072E+00  1.149E+01  6.892E-02  1.357E+00
   1    3    4     1     4    1.8175E+01  2.5740E-01   1.7917E+01  0.000E+00  0.000E+00  0.000E+00  1.07848E+03  1.068E+00  1.140E+01  6.328E-02  1.356E+00
   1    4    5     2     1    1.5917E+01  3.0542E-01   1.5612E+01  0.000E+00  0.000E+00  0.000E+00  1.07285E+03  9.157E-01  1.200E+01  7.800E-02  1.305E+00
   1    5    6     2     2    1.5612E+01  2.3438E-01   1.5377E+01  0.000E+00  0.000E+00  0.000E+00  1.06742E+03  9.063E-01  1.200E+01  6.000E-02  1.302E+00
   1    6    6     2     3    1.5377E+01  2.3388E-01   1.5143E+01  0.000E+00  0.000E+00  0.000E+00  1.06269E+03  8.980E-01  1.200E+01  6.000E-02  1.299E+00
   1    7    6     2     4    1.5143E+01  2.3338E-01   1.4910E+01  0.000E+00  0.000E+00  0.000E+00  1.05797E+03  8.897E-01  1.200E+01  6.000E-02  1.297E+00
   1    8    6     2     5    1.4910E+01  2.3289E-01   1.4677E+01  0.000E+00  0.000E+00  0.000E+00  1.05324E+03  8.814E-01  1.200E+01  6.000E-02  1.294E+00
   1    3    5     3     1    2.0000E+00  2.8252E-01   1.7175E+00  0.000E+00  0.000E+00  0.000E+00  1.07555E+03  1.909E+00  9.636E+00  7.227E-02  1.955E+00
   1    3    6     3     2    1.7175E+00  2.4905E-01   1.4684E+00  0.000E+00  0.000E+00  0.000E+00  1.07264E+03  1.727E+00  8.909E+00  6.682E-02  1.864E+00
   1    3    7     3     3    1.4684E+00  1.9718E-01   1.2712E+00  0.000E+00  0.000E+00  0.000E+00  1.06987E+03  1.555E+00  8.218E+00  5.547E-02  1.777E+00
   1    4    8     3     4    1.2712E+00  2.2567E-01   1.0456E+00  0.000E+00  0.000E+00  0.000E+00  1.06682E+03  1.364E+00  7.455E+00  6.709E-02  1.682E+00
   1    5    8     3     5    1.0456E+00  1.5790E-01   8.8768E-01  0.000E+00  0.000E+00  0.000E+00  1.06362E+03  1.164E+00  6.655E+00  4.991E-02  1.582E+00
   1    6    8     3     6    8.8768E-01  5.5980E-02   8.3170E-01  0.000E+00  0.000E+00  0.000E+00  1.06158E+03  1.036E+00  6.145E+00  1.844E-02  1.518E+00
   1    5   10     4     1    1.0000E+01  9.0919E-02   9.9091E+00  0.000E+00  0.000E+00  0.000E+00  1.07836E+03  6.368E-01  1.000E+01  2.500E-02  1.212E+00
   1    5    9     4     2    9.9091E+00  1.8158E-01   9.7275E+00  0.000E+00  0.000E+00  0.000E+00  1.07154E+03  6.315E-01  1.000E+01  5.000E-02  1.211E+00
   1    6    8     4     3    9.7275E+00  1.2689E-01   9.6006E+00  0.000E+00  0.000E+00  0.000E+00  1.06381E+03  6.256E-01  1.000E+01  3.500E-02  1.209E+00
   1    6    8     5     1    1.0432E+01  2.2686E-01   1.0205E+01  0.000E+00  0.000E+00  0.000E+00  1.05868E+03  6.790E-01  1.542E+01  6.166E-02  1.226E+00
   1    7    7     5     2    1.0205E+01  2.7894E-01   9.9265E+00  0.000E+00  0.000E+00  0.000E+00  1.05417E+03  6.732E-01  1.519E+01  7.594E-02  1.224E+00
   1    8    7     5     3    9.9265E+00  1.9221E-01   9.7343E+00  0.000E+00  0.000E+00  0.000E+00  1.04992E+03  6.676E-01  1.497E+01  5.241E-02  1.223E+00
   1    8    6     5     4    9.7343E+00  1.3577E-01   9.5985E+00  0.000E+00  0.000E+00  0.000E+00  1.04691E+03  6.637E-01  1.482E+01  3.706E-02  1.221E+00
   1    9    6     6     1    2.4276E+01  2.5176E-01   2.4024E+01  0.000E+00  0.000E+00  0.000E+00  1.04392E+03  1.196E+00  1.200E+01  6.000E-02  1.399E+00
   1   10    7     6     2    2.4024E+01  2.5131E-01   2.3773E+01  0.000E+00  0.000E+00  0.000E+00  1.03937E+03  1.188E+00  1.200E+01  6.000E-02  1.396E+00
   1   11    7     6     3    2.3773E+01  2.5086E-01   2.3522E+01  0.000E+00  0.000E+00  0.000E+00  1.03482E+03  1.181E+00  1.200E+01  6.000E-02  1.394E+00
   1   12    7     6     4    2.3522E+01  2.5041E-01   2.3271E+01  0.000E+00  0.000E+00  0.000E+00  1.03026E+03  1.173E+00  1.200E+01  6.000E-02  1.391E+00
   1   13    7     6     5    2.3271E+01  1.0334E-02   2.3261E+01  0.000E+00  0.000E+00  0.000E+00  1.02708E+03  1.170E+00  1.200E+01  2.400E-02  1.435E-01
   1   14    9     7     1    1.5000E+02  1.3662E+00   1.4863E+02  0.000E+00  0.000E+00  0.000E+00  1.03987E+03  2.288E+00  5.529E+01  5.593E-01  8.142E-01
   1   13    8     7     2    1.4863E+02  1.9581E+00   1.4668E+02  0.000E+00  0.000E+00  0.000E+00  1.03478E+03  2.279E+00  5.525E+01  6.147E-01  1.062E+00
   1   13    7     7     3    1.4668E+02  1.6977E+00   1.4498E+02  0.000E+00  0.000E+00  0.000E+00  1.02969E+03  2.269E+00  5.521E+01  5.584E-01  1.013E+00
   1   13    6     8     1    1.6824E+02  1.1364E+00   1.6710E+02  0.000E+00  0.000E+00  0.000E+00  1.02481E+03  2.937E+00  4.259E+01  4.340E-01  8.729E-01
   1   13    5     8     2    1.6710E+02  3.7692E-01   1.6673E+02  0.000E+00  0.000E+00  0.000E+00  1.01856E+03  2.932E+00  4.251E+01  4.332E-01  2.900E-01
   1   13    4     8     3    1.6673E+02 -1.7571E+00   1.6848E+02  0.000E+00  0.000E+00  0.000E+00  1.01231E+03  2.937E+00  4.258E+01  4.339E+00 -1.350E-01
   1   13    3     8     4    1.6848E+02 -3.3192E+00   1.7180E+02  0.000E+00  0.000E+00  0.000E+00  1.00608E+03  2.953E+00  4.282E+01  4.364E+00 -2.536E-01
   1   13    2     8     5    1.7180E+02 -2.4979E+00   1.7430E+02  0.000E+00  0.000E+00  0.000E+00  9.99847E+02  2.972E+00  4.309E+01  4.391E+00 -1.896E-01
   1   13    1     8     6    1.7430E+02 -1.9625E+00   1.7626E+02  0.000E+00  0.000E+00  0.000E+00  9.94861E+02  2.986E+00  4.330E+01  2.648E+00 -2.471E-01





UNSATURATED ZONE PACKAGE VOLUMETRIC BUDGET FOR  TIME STEP    30 STRESS PERIOD   40
  ------------------------------------------------------------------------------



     CUMULATIVE VOLUMES      L**3       RATES FOR THIS TIME STEP      L**3/T
     ------------------                 ------------------------

           IN:                                      IN:
           ---                                      ---
        INFILTRATION =  1515834408.9153          INFILTRATION =           0.8475

          OUT:                                     OUT:
          ----                                     ----
              UZF ET =  1297312273.6625                UZF ET =           0.7500
        UZF RECHARGE =   217165852.3464          UZF RECHARGE =           0.0001

            IN - OUT =     1356282.9064              IN - OUT =       9.7369E-02

          STORAGE:                                 STORAGE:
          --------                                 --------
      STORAGE CHANGE =     1356301.1689        STORAGE CHANGE =       9.7369E-02

 PERCENT DISCREPANCY IS DIFFERENCE BETWEEN IN-OUT MINUS CHANGE IN STORAGE
 DIVIDED BY THE AVERAGE OF IN AND OUT TIMES 100

 PERCENT DISCREPANCY =           0.00     PERCENT DISCREPANCY =           0.00






1
  VOLUMETRIC BUDGET FOR AGRICULTURAL FIELDS AT  END OF TIME STEP   30, STRESS PERIOD  40
  ------------------------------------------------------------------------------

     CUMULATIVE VOLUMES      L**3       RATES FOR THIS TIME STEP      L**3/T
     ------------------                 ------------------------

           IN:                                      IN:
           ---                                      ---
               AG WELLS  =  1428831872.0000                 AG WELLS  =           0.0000
      DIVERSION SEGMENTS =           0.0000        DIVERSION SEGMENTS =           0.0000
           GW IRRIGATION =           0.0000             GW IRRIGATION =           0.0000
           SW IRRIGATION =           0.0000             SW IRRIGATION =           0.0000
        SYSTEM LOSSES GW =           0.0000          SYSTEM LOSSES GW =           0.0000
        SYSTEM LOSSES SW =           0.0000          SYSTEM LOSSES SW =           0.0000

                TOTAL IN =  1428831872.0000                  TOTAL IN =           0.0000

          OUT:                                     OUT:
          ----                                     ----
               AG WELLS  =           0.0000                 AG WELLS  =           0.0000
      DIVERSION SEGMENTS =           0.0000        DIVERSION SEGMENTS =           0.0000
           GW IRRIGATION =  1428831872.0000             GW IRRIGATION =           0.0000
           SW IRRIGATION =           0.0000             SW IRRIGATION =           0.0000
        SYSTEM LOSSES GW =           0.0000          SYSTEM LOSSES GW =           0.0000
        SYSTEM LOSSES SW =           0.0000          SYSTEM LOSSES SW =           0.0000

               TOTAL OUT =  1428831872.0000                 TOTAL OUT =           0.0000

                IN - OUT =           0.0000                  IN - OUT =           0.0000

     PERCENT DISCREPANCY =           0.00         PERCENT DISCREPANCY =           0.00



1
  VOLUMETRIC BUDGET FOR ENTIRE MODEL AT END OF TIME STEP   30, STRESS PERIOD  40
  ------------------------------------------------------------------------------

     CUMULATIVE VOLUMES      L**3       RATES FOR THIS TIME STEP      L**3/T
     ------------------                 ------------------------

           IN:                                      IN:
           ---                                      ---
             STORAGE     =  1881361024.0000               STORAGE     =           3.9306
       CONSTANT HEAD     =           0.0000         CONSTANT HEAD     =           0.0000
     HEAD DEP BOUNDS     =    29359786.0000       HEAD DEP BOUNDS     =           0.2878
      STREAM LEAKAGE     =  1258185344.0000        STREAM LEAKAGE     =          12.2742
        UZF RECHARGE     =   217165808.0000          UZF RECHARGE     =       1.3133E-04
               GW ET     =           0.0000                 GW ET     =           0.0000
     SURFACE LEAKAGE     =           0.0000       SURFACE LEAKAGE     =           0.0000
           AG WELLS      =           0.0000             AG WELLS      =           0.0000

                TOTAL IN =  3386072064.0000                  TOTAL IN =          16.4927

          OUT:                                     OUT:
          ----                                     ----
             STORAGE     =   864018304.0000               STORAGE     =           6.6678
       CONSTANT HEAD     =           0.0000         CONSTANT HEAD     =           0.0000
     HEAD DEP BOUNDS     =    29992266.0000       HEAD DEP BOUNDS     =           0.2889
      STREAM LEAKAGE     =  1045723968.0000        STREAM LEAKAGE     =           9.5368
        UZF RECHARGE     =           0.0000          UZF RECHARGE     =           0.0000
               GW ET     =    17516202.0000                 GW ET     =           0.0000
     SURFACE LEAKAGE     =           0.0000       SURFACE LEAKAGE     =           0.0000
           AG WELLS      =  1428831872.0000             AG WELLS      =           0.0000

               TOTAL OUT =  3386082560.0000                 TOTAL OUT =          16.4935

                IN - OUT =      -10496.0000                  IN - OUT =      -7.7629E-04

     PERCENT DISCREPANCY =          -0.00         PERCENT DISCREPANCY =          -0.00






         TIME SUMMARY AT END OF TIME STEP   30 IN STRESS PERIOD   40
                    SECONDS     MINUTES      HOURS       DAYS        YEARS
                    -----------------------------------------------------------
   TIME STEP LENGTH  87667.      1461.1      24.352      1.0147     2.77799E-03
 STRESS PERIOD TIME 2.63000E+06  43833.      730.56      30.440     8.33397E-02
         TOTAL TIME 1.02656E+08 1.71093E+06  28515.      1188.1      3.2530    
1
1
                            STRESS PERIOD NO.   41, LENGTH =   2630000.    
                            -----------------------------------------------

                              NUMBER OF TIME STEPS =    30

                               MULTIPLIER FOR DELT =     1.000

                            INITIAL TIME STEP SIZE =   87666.66    

 REUSING NON-PARAMETER GHB CELLS FROM LAST STRESS PERIOD

      2 GHB CELLS

 REUSING STREAM SEGMENT DATA FROM LAST STRESS PERIOD



            AREAL INFILTRATION RATE
 READING ON UNIT   19 WITH FORMAT: (FREE)              

            1           2           3           4           5           6           7           8           9          10
 ........................................................................................................................
   1   1.0000E-10  2.0000E-10   0.000       0.000       0.000       0.000       0.000       0.000       0.000       0.000    
   2   2.0000E-10  1.0000E-10  2.0000E-10   0.000       0.000      8.0000E-10  8.0000E-10  5.0000E-10   0.000       0.000    
   3    0.000      5.0000E-10  1.0000E-10  1.0000E-10  8.0000E-10  8.0000E-10  5.0000E-10  5.0000E-10   0.000       0.000    
   4   8.0000E-10  5.0000E-10  1.0000E-10  1.0000E-10  1.0000E-10  1.0000E-10  1.0000E-10  1.0000E-10  2.0000E-10   0.000    
   5   8.0000E-10  5.0000E-10  1.0000E-10  1.0000E-10  1.0000E-10  1.0000E-10  1.0000E-10  1.0000E-10  1.0000E-10  1.0000E-10
   6   8.0000E-10  5.0000E-10  5.0000E-10  2.0000E-10  2.0000E-10  1.0000E-10  1.0000E-10  1.0000E-10  1.0000E-10  5.0000E-10
   7   8.0000E-10  5.0000E-10  5.0000E-10  2.0000E-10  2.0000E-10  1.0000E-10  1.0000E-10  2.0000E-10  2.0000E-10   0.000    
   8    0.000      5.0000E-10  5.0000E-10  2.0000E-10  2.0000E-10  1.0000E-10  1.0000E-10  2.0000E-10  5.0000E-10   0.000    
   9    0.000      5.0000E-10  5.0000E-10  2.0000E-10  2.0000E-10  1.0000E-10  1.0000E-10  2.0000E-10  5.0000E-10   0.000    
  10    0.000      5.0000E-10  5.0000E-10  2.0000E-10  2.0000E-10  1.0000E-10  1.0000E-10  2.0000E-10  5.0000E-10  8.0000E-10
  11    0.000      1.0000E-10  1.0000E-10  1.0000E-10  1.0000E-10  1.0000E-10  1.0000E-10  2.0000E-10  5.0000E-10   0.000    
  12   1.0000E-10  1.0000E-10  1.0000E-10  1.0000E-10  1.0000E-10  1.0000E-10  1.0000E-10  1.0000E-10  2.0000E-10   0.000    
  13   1.0000E-10  1.0000E-10  2.0000E-10  2.0000E-10  2.0000E-10  2.0000E-10  2.0000E-10  1.0000E-10  1.0000E-10   0.000    
  14    0.000      2.0000E-10  5.0000E-10  5.0000E-10  5.0000E-10  5.0000E-10  5.0000E-10  2.0000E-10  1.0000E-10   0.000    
  15    0.000       0.000      8.0000E-10  8.0000E-10  8.0000E-10  8.0000E-10   0.000       0.000       0.000       0.000    

                  ET RATE =  2.500000E-08

 USING ET EXTINCTION DEPTH FROM PREVIOUS STRESS PERIOD. CURRENT PERIOD IS:      41

 USING EXTINCTION WATER CONTENT FROM PREVIOUS STRESS PERIOD. CURRENT PERIOD IS:      41

 USING AIR ENTRY PRESSURE FROM PREVIOUS STRESS PERIOD. CURRENT PERIOD IS:      41

 USING ROOT PRESSURE HEAD FROM PREVIOUS STRESS PERIOD. CURRENT PERIOD IS:      41

 USING ROOT ACTIVITY FROM PREVIOUS STRESS PERIOD. CURRENT PERIOD IS:      41

 PROCESSING AG STRESS PERIOD DATA

 READING AG STRESS PERIOD DATA

 READING IRRIGATION WELL

 END PROCESSING AG STRESS PERIOD DATA OPTIONS
 
 SOLVING FOR HEAD 
                                                   Max.-Head-Change                         Max.-Flux-Residual
  Residual-Control   Outer-Iter.   Inner-Iter.     Column Row Layer    Maximum-Head-Change  Column Row Layer    Maximum-Flux-Residual          L2-NORM 
          0                 1           2             3    7     1       0.8886573398E-02       4    9    1         0.3052206488E+00      0.1151316283E+01
          0                 2           2             3    7     1      -0.8644216988E-03       4    9    1        -0.3052207783E-01      0.1151398585E+00
          0                 3           1             3    7     1       0.5886398462E-04       4    9    1         0.2136546231E-02      0.8059708671E-02

    ------------------------------------------------
       NWT REQUIRED            3 OUTER ITERATIONS 
       AND A TOTAL OF          5 INNER ITERATIONS.
    ------------------------------------------------

 NO OUTPUT CONTROL FOR STRESS PERIOD   41   TIME STEP    1
 
 SOLVING FOR HEAD 
                                                   Max.-Head-Change                         Max.-Flux-Residual
  Residual-Control   Outer-Iter.   Inner-Iter.     Column Row Layer    Maximum-Head-Change  Column Row Layer    Maximum-Flux-Residual          L2-NORM 
          0                 1           2             3    7     1       0.8735392031E-02       4    9    1         0.2962299428E+00      0.1122892937E+01
          0                 2           2             3    7     1      -0.8497158534E-03       4    9    1        -0.2962300695E-01      0.1122885167E+00
          0                 3           1             3    7     1       0.5786256688E-04       4    9    1         0.2073611257E-02      0.7860112938E-02

    ------------------------------------------------
       NWT REQUIRED            3 OUTER ITERATIONS 
       AND A TOTAL OF          5 INNER ITERATIONS.
    ------------------------------------------------

 NO OUTPUT CONTROL FOR STRESS PERIOD   41   TIME STEP    2
 
 SOLVING FOR HEAD 
                                                   Max.-Head-Change                         Max.-Flux-Residual
  Residual-Control   Outer-Iter.   Inner-Iter.     Column Row Layer    Maximum-Head-Change  Column Row Layer    Maximum-Flux-Residual          L2-NORM 
          0                 1           2             3    7     1       0.8586951157E-02       4    9    1         0.2875793787E+00      0.1096114359E+01
          0                 2           2             3    7     1      -0.8352765856E-03       4    9    1        -0.2875795024E-01      0.1096106525E+00
          0                 3           1             3    7     1       0.5687930268E-04       4    9    1         0.2013057271E-02      0.7672686975E-02

    ------------------------------------------------
       NWT REQUIRED            3 OUTER ITERATIONS 
       AND A TOTAL OF          5 INNER ITERATIONS.
    ------------------------------------------------

 NO OUTPUT CONTROL FOR STRESS PERIOD   41   TIME STEP    3
 
 SOLVING FOR HEAD 
                                                   Max.-Head-Change                         Max.-Flux-Residual
  Residual-Control   Outer-Iter.   Inner-Iter.     Column Row Layer    Maximum-Head-Change  Column Row Layer    Maximum-Flux-Residual          L2-NORM 
          0                 1           2             3    7     1       0.8440765084E-02       4    9    1         0.2792649599E+00      0.1070857493E+01
          0                 2           2             3    7     1      -0.8210566503E-03       4    9    1        -0.2792650807E-01      0.1070849341E+00
          0                 3           1             3    7     1       0.5591097446E-04       4    9    1         0.1954856308E-02      0.7495877455E-02

    ------------------------------------------------
       NWT REQUIRED            3 OUTER ITERATIONS 
       AND A TOTAL OF          5 INNER ITERATIONS.
    ------------------------------------------------

 NO OUTPUT CONTROL FOR STRESS PERIOD   41   TIME STEP    4
 
 SOLVING FOR HEAD 
                                                   Max.-Head-Change                         Max.-Flux-Residual
  Residual-Control   Outer-Iter.   Inner-Iter.     Column Row Layer    Maximum-Head-Change  Column Row Layer    Maximum-Flux-Residual          L2-NORM 
          0                 1           2             3    7     1       0.8296844027E-02       4    9    1         0.2712757779E+00      0.1047013029E+01
          0                 2           2             3    7     1      -0.8070570398E-03       4    9    1        -0.2712758958E-01      0.1047004712E+00
          0                 3           1             3    7     1       0.5495764991E-04       4    9    1         0.1898931982E-02      0.7328959605E-02

    ------------------------------------------------
       NWT REQUIRED            3 OUTER ITERATIONS 
       AND A TOTAL OF          5 INNER ITERATIONS.
    ------------------------------------------------

 NO OUTPUT CONTROL FOR STRESS PERIOD   41   TIME STEP    5
 
 SOLVING FOR HEAD 
                                                   Max.-Head-Change                         Max.-Flux-Residual
  Residual-Control   Outer-Iter.   Inner-Iter.     Column Row Layer    Maximum-Head-Change  Column Row Layer    Maximum-Flux-Residual          L2-NORM 
          0                 1           2             3    7     1       0.8155676010E-02       4    9    1         0.2636011178E+00      0.1024484943E+01
          0                 2           2             3    7     1      -0.7933252273E-03       4    9    1        -0.2636012327E-01      0.1024476651E+00
          0                 3           1             3    7     1       0.5402256174E-04       4    9    1         0.1845209326E-02      0.7171243440E-02

    ------------------------------------------------
       NWT REQUIRED            3 OUTER ITERATIONS 
       AND A TOTAL OF          5 INNER ITERATIONS.
    ------------------------------------------------

 NO OUTPUT CONTROL FOR STRESS PERIOD   41   TIME STEP    6
 
 SOLVING FOR HEAD 
                                                   Max.-Head-Change                         Max.-Flux-Residual
  Residual-Control   Outer-Iter.   Inner-Iter.     Column Row Layer    Maximum-Head-Change  Column Row Layer    Maximum-Flux-Residual          L2-NORM 
          0                 1           2             3    7     1       0.8016761252E-02       4    9    1         0.2562235330E+00      0.1003183289E+01
          0                 2           2             3    7     1      -0.7798125965E-03       4    9    1        -0.2562236450E-01      0.1003174833E+00
          0                 3           1             3    7     1       0.5310239925E-04       4    9    1         0.1793566199E-02      0.7022149356E-02

    ------------------------------------------------
       NWT REQUIRED            3 OUTER ITERATIONS 
       AND A TOTAL OF          5 INNER ITERATIONS.
    ------------------------------------------------

 NO OUTPUT CONTROL FOR STRESS PERIOD   41   TIME STEP    7
 
 SOLVING FOR HEAD 
                                                   Max.-Head-Change                         Max.-Flux-Residual
  Residual-Control   Outer-Iter.   Inner-Iter.     Column Row Layer    Maximum-Head-Change  Column Row Layer    Maximum-Flux-Residual          L2-NORM 
          0                 1           2             3    7     1       0.7880582485E-02       4    9    1         0.2491455088E+00      0.9830227819E+00
          0                 2           2             3    7     1      -0.7665661043E-03       4    9    1        -0.2491456181E-01      0.9830141118E-01
          0                 3           1             3    7     1       0.5220036002E-04       4    9    1         0.1744019982E-02      0.6880974664E-02

    ------------------------------------------------
       NWT REQUIRED            3 OUTER ITERATIONS 
       AND A TOTAL OF          5 INNER ITERATIONS.
    ------------------------------------------------

 NO OUTPUT CONTROL FOR STRESS PERIOD   41   TIME STEP    8
 
 SOLVING FOR HEAD 
                                                   Max.-Head-Change                         Max.-Flux-Residual
  Residual-Control   Outer-Iter.   Inner-Iter.     Column Row Layer    Maximum-Head-Change  Column Row Layer    Maximum-Flux-Residual          L2-NORM 
          0                 1           2             3    7     1       0.7746631095E-02       4    9    1         0.2423431051E+00      0.9639213032E+00
          0                 2           2             3    7     1      -0.7535362756E-03       4    9    1        -0.2423432116E-01      0.9639123061E-01
          0                 3           1             3    7     1       0.5131307465E-04       4    9    1         0.1696403112E-02      0.6747312613E-02

    ------------------------------------------------
       NWT REQUIRED            3 OUTER ITERATIONS 
       AND A TOTAL OF          5 INNER ITERATIONS.
    ------------------------------------------------

 NO OUTPUT CONTROL FOR STRESS PERIOD   41   TIME STEP    9
 
 SOLVING FOR HEAD 
                                                   Max.-Head-Change                         Max.-Flux-Residual
  Residual-Control   Outer-Iter.   Inner-Iter.     Column Row Layer    Maximum-Head-Change  Column Row Layer    Maximum-Flux-Residual          L2-NORM 
          0                 1           2             3    7     1       0.7615382108E-02       4    9    1         0.2358188546E+00      0.9458211659E+00
          0                 2           2             3    7     1      -0.7407693188E-03       4    9    1        -0.2358189586E-01      0.9458124415E-01
          0                 3           1             3    7     1       0.5044369065E-04       4    9    1         0.1650733319E-02      0.6620608186E-02

    ------------------------------------------------
       NWT REQUIRED            3 OUTER ITERATIONS 
       AND A TOTAL OF          5 INNER ITERATIONS.
    ------------------------------------------------

 NO OUTPUT CONTROL FOR STRESS PERIOD   41   TIME STEP   10
 
 SOLVING FOR HEAD 
                                                   Max.-Head-Change                         Max.-Flux-Residual
  Residual-Control   Outer-Iter.   Inner-Iter.     Column Row Layer    Maximum-Head-Change  Column Row Layer    Maximum-Flux-Residual          L2-NORM 
          0                 1           2             3    7     1       0.7486323599E-02       4    9    1         0.2295556327E+00      0.9286439362E+00
          0                 2           2             3    7     1      -0.7282154362E-03       4    9    1        -0.2295557342E-01      0.9286347098E-01
          0                 3           1             3    7     1       0.4958881614E-04       4    9    1         0.1606890735E-02      0.6500349960E-02

    ------------------------------------------------
       NWT REQUIRED            3 OUTER ITERATIONS 
       AND A TOTAL OF          5 INNER ITERATIONS.
    ------------------------------------------------

 NO OUTPUT CONTROL FOR STRESS PERIOD   41   TIME STEP   11
 
 SOLVING FOR HEAD 
                                                   Max.-Head-Change                         Max.-Flux-Residual
  Residual-Control   Outer-Iter.   Inner-Iter.     Column Row Layer    Maximum-Head-Change  Column Row Layer    Maximum-Flux-Residual          L2-NORM 
          0                 1           2             3    7     1       0.7359922970E-02       4    9    1         0.2235435716E+00      0.9123343856E+00
          0                 2           2             3    7     1      -0.7159200937E-03       4    9    1        -0.2235436706E-01      0.9123254168E-01
          0                 3           1             3    7     1       0.4875154752E-04       4    9    1         0.1564806268E-02      0.6386203776E-02

    ------------------------------------------------
       NWT REQUIRED            3 OUTER ITERATIONS 
       AND A TOTAL OF          5 INNER ITERATIONS.
    ------------------------------------------------

 NO OUTPUT CONTROL FOR STRESS PERIOD   41   TIME STEP   12
 
 SOLVING FOR HEAD 
                                                   Max.-Head-Change                         Max.-Flux-Residual
  Residual-Control   Outer-Iter.   Inner-Iter.     Column Row Layer    Maximum-Head-Change  Column Row Layer    Maximum-Flux-Residual          L2-NORM 
          0                 1           2             3    7     1       0.7235664114E-02       4    9    1         0.2177726158E+00      0.8968313663E+00
          0                 2           2             3    7     1      -0.7038330882E-03       4    9    1        -0.2177727125E-01      0.8968223577E-01
          0                 3           1             3    7     1       0.4792846569E-04       4    9    1         0.1524409558E-02      0.6277686641E-02

    ------------------------------------------------
       NWT REQUIRED            3 OUTER ITERATIONS 
       AND A TOTAL OF          5 INNER ITERATIONS.
    ------------------------------------------------

 NO OUTPUT CONTROL FOR STRESS PERIOD   41   TIME STEP   13
 
 SOLVING FOR HEAD 
                                                   Max.-Head-Change                         Max.-Flux-Residual
  Residual-Control   Outer-Iter.   Inner-Iter.     Column Row Layer    Maximum-Head-Change  Column Row Layer    Maximum-Flux-Residual          L2-NORM 
          0                 1           2             3    7     1       0.7114009279E-02       4    9    1         0.2122394956E+00      0.8820936529E+00
          0                 2           2             3    7     1      -0.6919993836E-03       4    9    1        -0.2122395900E-01      0.8820844987E-01
          0                 3           1             3    7     1       0.4712263344E-04       4    9    1         0.1485677672E-02      0.6174518290E-02

    ------------------------------------------------
       NWT REQUIRED            3 OUTER ITERATIONS 
       AND A TOTAL OF          5 INNER ITERATIONS.
    ------------------------------------------------

 NO OUTPUT CONTROL FOR STRESS PERIOD   41   TIME STEP   14
 
 SOLVING FOR HEAD 
                                                   Max.-Head-Change                         Max.-Flux-Residual
  Residual-Control   Outer-Iter.   Inner-Iter.     Column Row Layer    Maximum-Head-Change  Column Row Layer    Maximum-Flux-Residual          L2-NORM 
          0                 1           2             3    7     1       0.6994681502E-02       4    9    1         0.2069280792E+00      0.8680615359E+00
          0                 2           2             3    7     1      -0.6803920389E-03       4    9    1        -0.2069281714E-01      0.8680520889E-01
          0                 3           1             3    7     1       0.4633221476E-04       4    9    1         0.1448497725E-02      0.6076254880E-02

    ------------------------------------------------
       NWT REQUIRED            3 OUTER ITERATIONS 
       AND A TOTAL OF          5 INNER ITERATIONS.
    ------------------------------------------------

 NO OUTPUT CONTROL FOR STRESS PERIOD   41   TIME STEP   15
 
 SOLVING FOR HEAD 
                                                   Max.-Head-Change                         Max.-Flux-Residual
  Residual-Control   Outer-Iter.   Inner-Iter.     Column Row Layer    Maximum-Head-Change  Column Row Layer    Maximum-Flux-Residual          L2-NORM 
          0                 1           2             3    7     1       0.6877648746E-02       4    9    1         0.2018357169E+00      0.8546980294E+00
          0                 2           2             3    7     1      -0.6690079374E-03       4    9    1        -0.2018358070E-01      0.8546886062E-01
          0                 3           1             3    7     1       0.4555699892E-04       4    9    1         0.1412851174E-02      0.5982732219E-02

    ------------------------------------------------
       NWT REQUIRED            3 OUTER ITERATIONS 
       AND A TOTAL OF          5 INNER ITERATIONS.
    ------------------------------------------------

 NO OUTPUT CONTROL FOR STRESS PERIOD   41   TIME STEP   16
 
 SOLVING FOR HEAD 
                                                   Max.-Head-Change                         Max.-Flux-Residual
  Residual-Control   Outer-Iter.   Inner-Iter.     Column Row Layer    Maximum-Head-Change  Column Row Layer    Maximum-Flux-Residual          L2-NORM 
          0                 1           2             3    7     1       0.6763120683E-02       4    9    1         0.1969533844E+00      0.8419654921E+00
          0                 2           2             3    7     1      -0.6578674751E-03       4    9    1        -0.1969534726E-01      0.8419561893E-01
          0                 3           1             3    7     1       0.4479837363E-04       4    9    1         0.1378674814E-02      0.5893614707E-02

    ------------------------------------------------
       NWT REQUIRED            3 OUTER ITERATIONS 
       AND A TOTAL OF          5 INNER ITERATIONS.
    ------------------------------------------------

 NO OUTPUT CONTROL FOR STRESS PERIOD   41   TIME STEP   17
 
 SOLVING FOR HEAD 
                                                   Max.-Head-Change                         Max.-Flux-Residual
  Residual-Control   Outer-Iter.   Inner-Iter.     Column Row Layer    Maximum-Head-Change  Column Row Layer    Maximum-Flux-Residual          L2-NORM 
          0                 1           2             3    7     1       0.6650814221E-02       4    9    1         0.1922656473E+00      0.8298146032E+00
          0                 2           2             3    7     1      -0.6469431138E-03       4    9    1        -0.1922657334E-01      0.8298053065E-01
          0                 3           1             3    7     1       0.4405446374E-04       4    9    1         0.1345860639E-02      0.5808553439E-02

    ------------------------------------------------
       NWT REQUIRED            3 OUTER ITERATIONS 
       AND A TOTAL OF          5 INNER ITERATIONS.
    ------------------------------------------------

 NO OUTPUT CONTROL FOR STRESS PERIOD   41   TIME STEP   18
 
 SOLVING FOR HEAD 
                                                   Max.-Head-Change                         Max.-Flux-Residual
  Residual-Control   Outer-Iter.   Inner-Iter.     Column Row Layer    Maximum-Head-Change  Column Row Layer    Maximum-Flux-Residual          L2-NORM 
          0                 1           2             3    7     1       0.6540695043E-02       4    9    1         0.1877708068E+00      0.8182173900E+00
          0                 2           2             3    7     1      -0.6362315165E-03       4    9    1        -0.1877708912E-01      0.8182082294E-01
          0                 3           1             3    7     1       0.4332504311E-04       4    9    1         0.1314396727E-02      0.5727359437E-02

    ------------------------------------------------
       NWT REQUIRED            3 OUTER ITERATIONS 
       AND A TOTAL OF          5 INNER ITERATIONS.
    ------------------------------------------------

 NO OUTPUT CONTROL FOR STRESS PERIOD   41   TIME STEP   19
 
 SOLVING FOR HEAD 
                                                   Max.-Head-Change                         Max.-Flux-Residual
  Residual-Control   Outer-Iter.   Inner-Iter.     Column Row Layer    Maximum-Head-Change  Column Row Layer    Maximum-Flux-Residual          L2-NORM 
          0                 1           2             3    7     1       0.6432724569E-02       4    9    1         0.1834540932E+00      0.8071398412E+00
          0                 2           2             3    7     1      -0.6257289302E-03       4    9    1        -0.1834541758E-01      0.8071306963E-01
          0                 3           1             3    7     1       0.4260985565E-04       4    9    1         0.1284179710E-02      0.5649847829E-02

    ------------------------------------------------
       NWT REQUIRED            3 OUTER ITERATIONS 
       AND A TOTAL OF          5 INNER ITERATIONS.
    ------------------------------------------------

 NO OUTPUT CONTROL FOR STRESS PERIOD   41   TIME STEP   20
 
 SOLVING FOR HEAD 
                                                   Max.-Head-Change                         Max.-Flux-Residual
  Residual-Control   Outer-Iter.   Inner-Iter.     Column Row Layer    Maximum-Head-Change  Column Row Layer    Maximum-Flux-Residual          L2-NORM 
          0                 1           2             3    7     1       0.6327110915E-02       4    9    1         0.1793207204E+00      0.7965512034E+00
          0                 2           2             3    7     1      -0.6154555976E-03       4    9    1        -0.1793208014E-01      0.7965419835E-01
          0                 3           1             3    7     1       0.4191027904E-04       4    9    1         0.1255246078E-02      0.5575712905E-02

    ------------------------------------------------
       NWT REQUIRED            3 OUTER ITERATIONS 
       AND A TOTAL OF          5 INNER ITERATIONS.
    ------------------------------------------------

 NO OUTPUT CONTROL FOR STRESS PERIOD   41   TIME STEP   21
 
 SOLVING FOR HEAD 
                                                   Max.-Head-Change                         Max.-Flux-Residual
  Residual-Control   Outer-Iter.   Inner-Iter.     Column Row Layer    Maximum-Head-Change  Column Row Layer    Maximum-Flux-Residual          L2-NORM 
          0                 1           2             3    7     1       0.6223567665E-02       4    9    1         0.1753497656E+00      0.7864217137E+00
          0                 2           2             3    7     1      -0.6053836592E-03       4    9    1        -0.1753498448E-01      0.7864125197E-01
          0                 3           1             3    7     1       0.4122441588E-04       4    9    1         0.1227449360E-02      0.5504832828E-02

    ------------------------------------------------
       NWT REQUIRED            3 OUTER ITERATIONS 
       AND A TOTAL OF          5 INNER ITERATIONS.
    ------------------------------------------------

 NO OUTPUT CONTROL FOR STRESS PERIOD   41   TIME STEP   22
 
 SOLVING FOR HEAD 
                                                   Max.-Head-Change                         Max.-Flux-Residual
  Residual-Control   Outer-Iter.   Inner-Iter.     Column Row Layer    Maximum-Head-Change  Column Row Layer    Maximum-Flux-Residual          L2-NORM 
          0                 1           2             3    7     1       0.6122297152E-02       4    9    1         0.1715405955E+00      0.7767304750E+00
          0                 2           2             3    7     1      -0.5955327969E-03       4    9    1        -0.1715406729E-01      0.7767213736E-01
          0                 3           1             3    7     1       0.4055360833E-04       4    9    1         0.1200785148E-02      0.5436966508E-02

    ------------------------------------------------
       NWT REQUIRED            3 OUTER ITERATIONS 
       AND A TOTAL OF          5 INNER ITERATIONS.
    ------------------------------------------------

 NO OUTPUT CONTROL FOR STRESS PERIOD   41   TIME STEP   23
 
 SOLVING FOR HEAD 
                                                   Max.-Head-Change                         Max.-Flux-Residual
  Residual-Control   Outer-Iter.   Inner-Iter.     Column Row Layer    Maximum-Head-Change  Column Row Layer    Maximum-Flux-Residual          L2-NORM 
          0                 1           2             3    7     1       0.6023014018E-02       4    9    1         0.1678861800E+00      0.7674434335E+00
          0                 2           2             3    7     1      -0.5858752525E-03       4    9    1        -0.1678862558E-01      0.7674342687E-01
          0                 3           1             3    7     1       0.3989596490E-04       4    9    1         0.1175204222E-02      0.5371985347E-02

    ------------------------------------------------
       NWT REQUIRED            3 OUTER ITERATIONS 
       AND A TOTAL OF          5 INNER ITERATIONS.
    ------------------------------------------------

 NO OUTPUT CONTROL FOR STRESS PERIOD   41   TIME STEP   24
 
 SOLVING FOR HEAD 
                                                   Max.-Head-Change                         Max.-Flux-Residual
  Residual-Control   Outer-Iter.   Inner-Iter.     Column Row Layer    Maximum-Head-Change  Column Row Layer    Maximum-Flux-Residual          L2-NORM 
          0                 1           2             3    7     1       0.5925921695E-02       4    9    1         0.1643860404E+00      0.7585463106E+00
          0                 2           2             3    7     1      -0.5764308138E-03       4    9    1        -0.1643861148E-01      0.7585372554E-01
          0                 3           1             3    7     1       0.3925283297E-04       4    9    1         0.1150703235E-02      0.5309675507E-02

    ------------------------------------------------
       NWT REQUIRED            3 OUTER ITERATIONS 
       AND A TOTAL OF          5 INNER ITERATIONS.
    ------------------------------------------------

 NO OUTPUT CONTROL FOR STRESS PERIOD   41   TIME STEP   25
 
 SOLVING FOR HEAD 
                                                   Max.-Head-Change                         Max.-Flux-Residual
  Residual-Control   Outer-Iter.   Inner-Iter.     Column Row Layer    Maximum-Head-Change  Column Row Layer    Maximum-Flux-Residual          L2-NORM 
          0                 1           2             3    7     1       0.5830733798E-02       4    9    1         0.1610204879E+00      0.7500098600E+00
          0                 2           2             3    7     1      -0.5671716241E-03       4    9    1        -0.1610205608E-01      0.7500008544E-01
          0                 3           1             3    7     1       0.3862231561E-04       4    9    1         0.1127144343E-02      0.5249928516E-02

    ------------------------------------------------
       NWT REQUIRED            3 OUTER ITERATIONS 
       AND A TOTAL OF          5 INNER ITERATIONS.
    ------------------------------------------------

 NO OUTPUT CONTROL FOR STRESS PERIOD   41   TIME STEP   26
 
 SOLVING FOR HEAD 
                                                   Max.-Head-Change                         Max.-Flux-Residual
  Residual-Control   Outer-Iter.   Inner-Iter.     Column Row Layer    Maximum-Head-Change  Column Row Layer    Maximum-Flux-Residual          L2-NORM 
          0                 1           2             3    7     1       0.5737653423E-02       9    5    1        -0.1597513984E+00      0.7418252323E+00
          0                 2           2             3    7     1      -0.5581174392E-03       9    5    1         0.1597512620E-01      0.7418160690E-01
          0                 3           1             3    7     1       0.3800575878E-04       9    5    1        -0.1118259433E-02      0.5192615996E-02

    ------------------------------------------------
       NWT REQUIRED            3 OUTER ITERATIONS 
       AND A TOTAL OF          5 INNER ITERATIONS.
    ------------------------------------------------

 NO OUTPUT CONTROL FOR STRESS PERIOD   41   TIME STEP   27
 
 SOLVING FOR HEAD 
                                                   Max.-Head-Change                         Max.-Flux-Residual
  Residual-Control   Outer-Iter.   Inner-Iter.     Column Row Layer    Maximum-Head-Change  Column Row Layer    Maximum-Flux-Residual          L2-NORM 
          0                 1           2             3    7     1       0.5646633912E-02       9    5    1        -0.1592175860E+00      0.7339598056E+00
          0                 2           2             3    7     1      -0.5438021209E-03       9    5    1         0.1592174505E-01      0.7334856223E-01
          0                 3           1             3    7     1       0.3703092903E-04       9    5    1        -0.1114522759E-02      0.5134325113E-02

    ------------------------------------------------
       NWT REQUIRED            3 OUTER ITERATIONS 
       AND A TOTAL OF          5 INNER ITERATIONS.
    ------------------------------------------------

 NO OUTPUT CONTROL FOR STRESS PERIOD   41   TIME STEP   28
 
 SOLVING FOR HEAD 
                                                   Max.-Head-Change                         Max.-Flux-Residual
  Residual-Control   Outer-Iter.   Inner-Iter.     Column Row Layer    Maximum-Head-Change  Column Row Layer    Maximum-Flux-Residual          L2-NORM 
          0                 1           2             3    7     1       0.5570193074E-02       9    5    1        -0.1586843762E+00      0.7264417563E+00
          0                 2           2             3    7     1      -0.5418289486E-03       9    5    1         0.1586842416E-01      0.7264329853E-01
          0                 3           1             3    7     1       0.3689656299E-04       9    5    1        -0.1110790298E-02      0.5084948473E-02

    ------------------------------------------------
       NWT REQUIRED            3 OUTER ITERATIONS 
       AND A TOTAL OF          5 INNER ITERATIONS.
    ------------------------------------------------

 NO OUTPUT CONTROL FOR STRESS PERIOD   41   TIME STEP   29
 
 SOLVING FOR HEAD 
                                                   Max.-Head-Change                         Max.-Flux-Residual
  Residual-Control   Outer-Iter.   Inner-Iter.     Column Row Layer    Maximum-Head-Change  Column Row Layer    Maximum-Flux-Residual          L2-NORM 
          0                 1           2             3    7     1       0.5489747120E-02       9    5    1        -0.1581457080E+00      0.7192305607E+00
          0                 2           2             3    7     1      -0.5340037171E-03       9    5    1         0.1581455744E-01      0.7192216774E-01
          0                 3           1             3    7     1       0.3636369371E-04       9    5    1        -0.1107019628E-02      0.5034472365E-02

    ------------------------------------------------
       NWT REQUIRED            3 OUTER ITERATIONS 
       AND A TOTAL OF          5 INNER ITERATIONS.
    ------------------------------------------------

 NO OUTPUT CONTROL FOR STRESS PERIOD   41   TIME STEP   30



 STREAM LISTING     PERIOD     41   STEP       30

 LAYER ROW COL. STREAM  RCH.  FLOW INTO     FLOW TO   FLOW OUT OF   OVRLND.     DIRECT     STREAM       STREAM     STREAM     STREAM   STREAMBED  STREAMBED
                SEG.NO.  NO.  STRM. RCH.    AQUIFER    STRM. RCH.    RUNOFF     PRECIP       ET          HEAD       DEPTH      WIDTH   CONDCTNC.   GRADIENT

   1    1    1     1     1    1.9000E+01  2.1427E-01   1.8786E+01  0.000E+00  0.000E+00  0.000E+00  1.09413E+03  1.082E+00  1.166E+01  5.249E-02  1.361E+00
   1    2    2     1     2    1.8786E+01  3.3054E-01   1.8455E+01  0.000E+00  0.000E+00  0.000E+00  1.08914E+03  1.077E+00  1.158E+01  8.107E-02  1.359E+00
   1    3    3     1     3    1.8455E+01  2.8064E-01   1.8175E+01  0.000E+00  0.000E+00  0.000E+00  1.08349E+03  1.072E+00  1.149E+01  6.892E-02  1.357E+00
   1    3    4     1     4    1.8175E+01  2.5740E-01   1.7917E+01  0.000E+00  0.000E+00  0.000E+00  1.07848E+03  1.068E+00  1.140E+01  6.328E-02  1.356E+00
   1    4    5     2     1    1.5917E+01  3.0542E-01   1.5612E+01  0.000E+00  0.000E+00  0.000E+00  1.07285E+03  9.157E-01  1.200E+01  7.800E-02  1.305E+00
   1    5    6     2     2    1.5612E+01  2.3438E-01   1.5377E+01  0.000E+00  0.000E+00  0.000E+00  1.06742E+03  9.063E-01  1.200E+01  6.000E-02  1.302E+00
   1    6    6     2     3    1.5377E+01  2.3388E-01   1.5143E+01  0.000E+00  0.000E+00  0.000E+00  1.06269E+03  8.980E-01  1.200E+01  6.000E-02  1.299E+00
   1    7    6     2     4    1.5143E+01  2.3338E-01   1.4910E+01  0.000E+00  0.000E+00  0.000E+00  1.05797E+03  8.897E-01  1.200E+01  6.000E-02  1.297E+00
   1    8    6     2     5    1.4910E+01  2.3289E-01   1.4677E+01  0.000E+00  0.000E+00  0.000E+00  1.05324E+03  8.814E-01  1.200E+01  6.000E-02  1.294E+00
   1    3    5     3     1    2.0000E+00  2.8252E-01   1.7175E+00  0.000E+00  0.000E+00  0.000E+00  1.07555E+03  1.909E+00  9.636E+00  7.227E-02  1.955E+00
   1    3    6     3     2    1.7175E+00  2.4905E-01   1.4684E+00  0.000E+00  0.000E+00  0.000E+00  1.07264E+03  1.727E+00  8.909E+00  6.682E-02  1.864E+00
   1    3    7     3     3    1.4684E+00  1.9718E-01   1.2712E+00  0.000E+00  0.000E+00  0.000E+00  1.06987E+03  1.555E+00  8.218E+00  5.547E-02  1.777E+00
   1    4    8     3     4    1.2712E+00  2.2567E-01   1.0456E+00  0.000E+00  0.000E+00  0.000E+00  1.06682E+03  1.364E+00  7.455E+00  6.709E-02  1.682E+00
   1    5    8     3     5    1.0456E+00  1.5790E-01   8.8768E-01  0.000E+00  0.000E+00  0.000E+00  1.06362E+03  1.164E+00  6.655E+00  4.991E-02  1.582E+00
   1    6    8     3     6    8.8768E-01  5.5980E-02   8.3170E-01  0.000E+00  0.000E+00  0.000E+00  1.06158E+03  1.036E+00  6.145E+00  1.844E-02  1.518E+00
   1    5   10     4     1    1.0000E+01  9.0919E-02   9.9091E+00  0.000E+00  0.000E+00  0.000E+00  1.07836E+03  6.368E-01  1.000E+01  2.500E-02  1.212E+00
   1    5    9     4     2    9.9091E+00  1.8158E-01   9.7275E+00  0.000E+00  0.000E+00  0.000E+00  1.07154E+03  6.315E-01  1.000E+01  5.000E-02  1.211E+00
   1    6    8     4     3    9.7275E+00  1.2689E-01   9.6006E+00  0.000E+00  0.000E+00  0.000E+00  1.06381E+03  6.256E-01  1.000E+01  3.500E-02  1.209E+00
   1    6    8     5     1    1.0432E+01  2.2686E-01   1.0205E+01  0.000E+00  0.000E+00  0.000E+00  1.05868E+03  6.790E-01  1.542E+01  6.166E-02  1.226E+00
   1    7    7     5     2    1.0205E+01  2.7894E-01   9.9265E+00  0.000E+00  0.000E+00  0.000E+00  1.05417E+03  6.732E-01  1.519E+01  7.594E-02  1.224E+00
   1    8    7     5     3    9.9265E+00  1.9221E-01   9.7343E+00  0.000E+00  0.000E+00  0.000E+00  1.04992E+03  6.676E-01  1.497E+01  5.241E-02  1.223E+00
   1    8    6     5     4    9.7343E+00  1.3577E-01   9.5985E+00  0.000E+00  0.000E+00  0.000E+00  1.04691E+03  6.637E-01  1.482E+01  3.706E-02  1.221E+00
   1    9    6     6     1    2.4276E+01  2.5176E-01   2.4024E+01  0.000E+00  0.000E+00  0.000E+00  1.04392E+03  1.196E+00  1.200E+01  6.000E-02  1.399E+00
   1   10    7     6     2    2.4024E+01  2.5131E-01   2.3773E+01  0.000E+00  0.000E+00  0.000E+00  1.03937E+03  1.188E+00  1.200E+01  6.000E-02  1.396E+00
   1   11    7     6     3    2.3773E+01  2.5086E-01   2.3522E+01  0.000E+00  0.000E+00  0.000E+00  1.03482E+03  1.181E+00  1.200E+01  6.000E-02  1.394E+00
   1   12    7     6     4    2.3522E+01  2.5041E-01   2.3271E+01  0.000E+00  0.000E+00  0.000E+00  1.03026E+03  1.173E+00  1.200E+01  6.000E-02  1.391E+00
   1   13    7     6     5    2.3271E+01  1.0764E-02   2.3261E+01  0.000E+00  0.000E+00  0.000E+00  1.02708E+03  1.170E+00  1.200E+01  2.400E-02  1.495E-01
   1   14    9     7     1    1.5000E+02  1.3683E+00   1.4863E+02  0.000E+00  0.000E+00  0.000E+00  1.03987E+03  2.288E+00  5.529E+01  5.593E-01  8.155E-01
   1   13    8     7     2    1.4863E+02  1.9648E+00   1.4667E+02  0.000E+00  0.000E+00  0.000E+00  1.03478E+03  2.279E+00  5.525E+01  6.147E-01  1.065E+00
   1   13    7     7     3    1.4667E+02  1.7076E+00   1.4496E+02  0.000E+00  0.000E+00  0.000E+00  1.02969E+03  2.269E+00  5.521E+01  5.584E-01  1.019E+00
   1   13    6     8     1    1.6822E+02  1.1441E+00   1.6708E+02  0.000E+00  0.000E+00  0.000E+00  1.02481E+03  2.937E+00  4.258E+01  4.339E-01  8.789E-01
   1   13    5     8     2    1.6708E+02  3.8208E-01   1.6669E+02  0.000E+00  0.000E+00  0.000E+00  1.01856E+03  2.932E+00  4.251E+01  4.332E-01  2.940E-01
   1   13    4     8     3    1.6669E+02 -1.7442E+00   1.6844E+02  0.000E+00  0.000E+00  0.000E+00  1.01231E+03  2.936E+00  4.258E+01  4.339E+00 -1.340E-01
   1   13    3     8     4    1.6844E+02 -3.3100E+00   1.7175E+02  0.000E+00  0.000E+00  0.000E+00  1.00608E+03  2.953E+00  4.282E+01  4.363E+00 -2.529E-01
   1   13    2     8     5    1.7175E+02 -2.4944E+00   1.7424E+02  0.000E+00  0.000E+00  0.000E+00  9.99847E+02  2.972E+00  4.309E+01  4.391E+00 -1.894E-01
   1   13    1     8     6    1.7424E+02 -1.9614E+00   1.7620E+02  0.000E+00  0.000E+00  0.000E+00  9.94861E+02  2.986E+00  4.330E+01  2.647E+00 -2.470E-01





UNSATURATED ZONE PACKAGE VOLUMETRIC BUDGET FOR  TIME STEP    30 STRESS PERIOD   41
  ------------------------------------------------------------------------------



     CUMULATIVE VOLUMES      L**3       RATES FOR THIS TIME STEP      L**3/T
     ------------------                 ------------------------

           IN:                                      IN:
           ---                                      ---
        INFILTRATION =  1527846933.3230          INFILTRATION =           4.5675

          OUT:                                     OUT:
          ----                                     ----
              UZF ET =  1310606923.1321                UZF ET =           4.5675
        UZF RECHARGE =   217165852.3464          UZF RECHARGE =       0.0000E+00

            IN - OUT =       74157.8444              IN - OUT =       0.0000E+00

          STORAGE:                                 STORAGE:
          --------                                 --------
      STORAGE CHANGE =       74176.1112        STORAGE CHANGE =       8.4821E-15

 PERCENT DISCREPANCY IS DIFFERENCE BETWEEN IN-OUT MINUS CHANGE IN STORAGE
 DIVIDED BY THE AVERAGE OF IN AND OUT TIMES 100

 PERCENT DISCREPANCY =           0.00     PERCENT DISCREPANCY =           0.00






1
  VOLUMETRIC BUDGET FOR AGRICULTURAL FIELDS AT  END OF TIME STEP   30, STRESS PERIOD  41
  ------------------------------------------------------------------------------

     CUMULATIVE VOLUMES      L**3       RATES FOR THIS TIME STEP      L**3/T
     ------------------                 ------------------------

           IN:                                      IN:
           ---                                      ---
               AG WELLS  =  1438616192.0000                 AG WELLS  =           3.7200
      DIVERSION SEGMENTS =           0.0000        DIVERSION SEGMENTS =           0.0000
           GW IRRIGATION =           0.0000             GW IRRIGATION =           0.0000
           SW IRRIGATION =           0.0000             SW IRRIGATION =           0.0000
        SYSTEM LOSSES GW =           0.0000          SYSTEM LOSSES GW =           0.0000
        SYSTEM LOSSES SW =           0.0000          SYSTEM LOSSES SW =           0.0000

                TOTAL IN =  1438616192.0000                  TOTAL IN =           3.7200

          OUT:                                     OUT:
          ----                                     ----
               AG WELLS  =           0.0000                 AG WELLS  =           0.0000
      DIVERSION SEGMENTS =           0.0000        DIVERSION SEGMENTS =           0.0000
           GW IRRIGATION =  1438616192.0000             GW IRRIGATION =           3.7200
           SW IRRIGATION =           0.0000             SW IRRIGATION =           0.0000
        SYSTEM LOSSES GW =           0.0000          SYSTEM LOSSES GW =           0.0000
        SYSTEM LOSSES SW =           0.0000          SYSTEM LOSSES SW =           0.0000

               TOTAL OUT =  1438616192.0000                 TOTAL OUT =           3.7200

                IN - OUT =           0.0000                  IN - OUT =           0.0000

     PERCENT DISCREPANCY =           0.00         PERCENT DISCREPANCY =           0.00



1
  VOLUMETRIC BUDGET FOR ENTIRE MODEL AT END OF TIME STEP   30, STRESS PERIOD  41
  ------------------------------------------------------------------------------

     CUMULATIVE VOLUMES      L**3       RATES FOR THIS TIME STEP      L**3/T
     ------------------                 ------------------------

           IN:                                      IN:
           ---                                      ---
             STORAGE     =  1892201984.0000               STORAGE     =           3.4941
       CONSTANT HEAD     =           0.0000         CONSTANT HEAD     =           0.0000
     HEAD DEP BOUNDS     =    30116960.0000       HEAD DEP BOUNDS     =           0.2880
      STREAM LEAKAGE     =  1290511488.0000        STREAM LEAKAGE     =          12.3063
        UZF RECHARGE     =   217165808.0000          UZF RECHARGE     =           0.0000
               GW ET     =           0.0000                 GW ET     =           0.0000
     SURFACE LEAKAGE     =           0.0000       SURFACE LEAKAGE     =           0.0000
           AG WELLS      =           0.0000             AG WELLS      =           0.0000

                TOTAL IN =  3429996288.0000                  TOTAL IN =          16.0883

          OUT:                                     OUT:
          ----                                     ----
             STORAGE     =   872355328.0000               STORAGE     =           2.5692
       CONSTANT HEAD     =           0.0000         CONSTANT HEAD     =           0.0000
     HEAD DEP BOUNDS     =    30752024.0000       HEAD DEP BOUNDS     =           0.2889
      STREAM LEAKAGE     =  1070767232.0000        STREAM LEAKAGE     =           9.5100
        UZF RECHARGE     =           0.0000          UZF RECHARGE     =           0.0000
               GW ET     =    17516202.0000                 GW ET     =           0.0000
     SURFACE LEAKAGE     =           0.0000       SURFACE LEAKAGE     =           0.0000
           AG WELLS      =  1438616192.0000             AG WELLS      =           3.7200

               TOTAL OUT =  3430006784.0000                 TOTAL OUT =          16.0881

                IN - OUT =      -10496.0000                  IN - OUT =       2.6894E-04

     PERCENT DISCREPANCY =          -0.00         PERCENT DISCREPANCY =           0.00






         TIME SUMMARY AT END OF TIME STEP   30 IN STRESS PERIOD   41
                    SECONDS     MINUTES      HOURS       DAYS        YEARS
                    -----------------------------------------------------------
   TIME STEP LENGTH  87667.      1461.1      24.352      1.0147     2.77799E-03
 STRESS PERIOD TIME 2.63000E+06  43833.      730.56      30.440     8.33397E-02
         TOTAL TIME 1.05286E+08 1.75476E+06  29246.      1218.6      3.3363    
1
1
                            STRESS PERIOD NO.   42, LENGTH =   2630000.    
                            -----------------------------------------------

                              NUMBER OF TIME STEPS =    30

                               MULTIPLIER FOR DELT =     1.000

                            INITIAL TIME STEP SIZE =   87666.66    

 REUSING NON-PARAMETER GHB CELLS FROM LAST STRESS PERIOD

      2 GHB CELLS

 REUSING STREAM SEGMENT DATA FROM LAST STRESS PERIOD



            AREAL INFILTRATION RATE
 READING ON UNIT   19 WITH FORMAT: (FREE)              

            1           2           3           4           5           6           7           8           9          10
 ........................................................................................................................
   1   1.0000E-10  2.0000E-10   0.000       0.000       0.000       0.000       0.000       0.000       0.000       0.000    
   2   2.0000E-10  1.0000E-10  2.0000E-10   0.000       0.000      8.0000E-10  8.0000E-10  5.0000E-10   0.000       0.000    
   3    0.000      5.0000E-10  1.0000E-10  1.0000E-10  8.0000E-10  8.0000E-10  5.0000E-10  5.0000E-10   0.000       0.000    
   4   8.0000E-10  5.0000E-10  1.0000E-10  1.0000E-10  1.0000E-10  1.0000E-10  1.0000E-10  1.0000E-10  2.0000E-10   0.000    
   5   8.0000E-10  5.0000E-10  1.0000E-10  1.0000E-10  1.0000E-10  1.0000E-10  1.0000E-10  1.0000E-10  1.0000E-10  1.0000E-10
   6   8.0000E-10  5.0000E-10  5.0000E-10  2.0000E-10  2.0000E-10  1.0000E-10  1.0000E-10  1.0000E-10  1.0000E-10  5.0000E-10
   7   8.0000E-10  5.0000E-10  5.0000E-10  2.0000E-10  2.0000E-10  1.0000E-10  1.0000E-10  2.0000E-10  2.0000E-10   0.000    
   8    0.000      5.0000E-10  5.0000E-10  2.0000E-10  2.0000E-10  1.0000E-10  1.0000E-10  2.0000E-10  5.0000E-10   0.000    
   9    0.000      5.0000E-10  5.0000E-10  2.0000E-10  2.0000E-10  1.0000E-10  1.0000E-10  2.0000E-10  5.0000E-10   0.000    
  10    0.000      5.0000E-10  5.0000E-10  2.0000E-10  2.0000E-10  1.0000E-10  1.0000E-10  2.0000E-10  5.0000E-10  8.0000E-10
  11    0.000      1.0000E-10  1.0000E-10  1.0000E-10  1.0000E-10  1.0000E-10  1.0000E-10  2.0000E-10  5.0000E-10   0.000    
  12   1.0000E-10  1.0000E-10  1.0000E-10  1.0000E-10  1.0000E-10  1.0000E-10  1.0000E-10  1.0000E-10  2.0000E-10   0.000    
  13   1.0000E-10  1.0000E-10  2.0000E-10  2.0000E-10  2.0000E-10  2.0000E-10  2.0000E-10  1.0000E-10  1.0000E-10   0.000    
  14    0.000      2.0000E-10  5.0000E-10  5.0000E-10  5.0000E-10  5.0000E-10  5.0000E-10  2.0000E-10  1.0000E-10   0.000    
  15    0.000       0.000      8.0000E-10  8.0000E-10  8.0000E-10  8.0000E-10   0.000       0.000       0.000       0.000    

                  ET RATE =  5.000000E-08

 USING ET EXTINCTION DEPTH FROM PREVIOUS STRESS PERIOD. CURRENT PERIOD IS:      42

 USING EXTINCTION WATER CONTENT FROM PREVIOUS STRESS PERIOD. CURRENT PERIOD IS:      42

 USING AIR ENTRY PRESSURE FROM PREVIOUS STRESS PERIOD. CURRENT PERIOD IS:      42

 USING ROOT PRESSURE HEAD FROM PREVIOUS STRESS PERIOD. CURRENT PERIOD IS:      42

 USING ROOT ACTIVITY FROM PREVIOUS STRESS PERIOD. CURRENT PERIOD IS:      42

 PROCESSING AG STRESS PERIOD DATA

 READING AG STRESS PERIOD DATA

 READING IRRIGATION WELL

 END PROCESSING AG STRESS PERIOD DATA OPTIONS
 
 SOLVING FOR HEAD 
                                                   Max.-Head-Change                         Max.-Flux-Residual
  Residual-Control   Outer-Iter.   Inner-Iter.     Column Row Layer    Maximum-Head-Change  Column Row Layer    Maximum-Flux-Residual          L2-NORM 
          0                 1           2             4    7     1      -0.1280180894E-01       4    7    1        -0.6706293767E+00      0.1734152841E+01
          0                 2           2             4    7     1       0.1245266413E-02       4    7    1         0.6706291082E-01      0.1734146484E+00
          0                 3           1             4    7     1      -0.8479803018E-04       4    7    1        -0.4694406036E-02      0.1213899865E-01

    ------------------------------------------------
       NWT REQUIRED            3 OUTER ITERATIONS 
       AND A TOTAL OF          5 INNER ITERATIONS.
    ------------------------------------------------

 NO OUTPUT CONTROL FOR STRESS PERIOD   42   TIME STEP    1
 
 SOLVING FOR HEAD 
                                                   Max.-Head-Change                         Max.-Flux-Residual
  Residual-Control   Outer-Iter.   Inner-Iter.     Column Row Layer    Maximum-Head-Change  Column Row Layer    Maximum-Flux-Residual          L2-NORM 
          0                 1           2             4    7     1      -0.1269151431E-01       4    7    1        -0.6651619903E+00      0.1694988268E+01
          0                 2           2             4    7     1       0.1234537583E-02       4    7    1         0.6651616037E-01      0.1694981920E+00
          0                 3           1             4    7     1      -0.8406743836E-04       4    7    1        -0.4656133599E-02      0.1186485215E-01

    ------------------------------------------------
       NWT REQUIRED            3 OUTER ITERATIONS 
       AND A TOTAL OF          5 INNER ITERATIONS.
    ------------------------------------------------

 NO OUTPUT CONTROL FOR STRESS PERIOD   42   TIME STEP    2
 
 SOLVING FOR HEAD 
                                                   Max.-Head-Change                         Max.-Flux-Residual
  Residual-Control   Outer-Iter.   Inner-Iter.     Column Row Layer    Maximum-Head-Change  Column Row Layer    Maximum-Flux-Residual          L2-NORM 
          0                 1           2             4    7     1      -0.1257662157E-01       4    7    1        -0.6594285397E+00      0.1657584162E+01
          0                 2           2             4    7     1       0.1223361501E-02       4    7    1         0.6594280475E-01      0.1657577973E+00
          0                 3           1             4    7     1      -0.8330639037E-04       4    7    1        -0.4615998788E-02      0.1160302246E-01

    ------------------------------------------------
       NWT REQUIRED            3 OUTER ITERATIONS 
       AND A TOTAL OF          5 INNER ITERATIONS.
    ------------------------------------------------

 NO OUTPUT CONTROL FOR STRESS PERIOD   42   TIME STEP    3
 
 SOLVING FOR HEAD 
                                                   Max.-Head-Change                         Max.-Flux-Residual
  Residual-Control   Outer-Iter.   Inner-Iter.     Column Row Layer    Maximum-Head-Change  Column Row Layer    Maximum-Flux-Residual          L2-NORM 
          0                 1           2             4    7     1      -0.1245763252E-01       4    7    1        -0.6534566888E+00      0.1621842265E+01
          0                 2           2             4    7     1       0.1211786976E-02       4    7    1         0.6534561030E-01      0.1621835998E+00
          0                 3           1             4    7     1      -0.8251820933E-04       4    7    1        -0.4574195232E-02      0.1135282813E-01

    ------------------------------------------------
       NWT REQUIRED            3 OUTER ITERATIONS 
       AND A TOTAL OF          5 INNER ITERATIONS.
    ------------------------------------------------

 NO OUTPUT CONTROL FOR STRESS PERIOD   42   TIME STEP    4
 
 SOLVING FOR HEAD 
                                                   Max.-Head-Change                         Max.-Flux-Residual
  Residual-Control   Outer-Iter.   Inner-Iter.     Column Row Layer    Maximum-Head-Change  Column Row Layer    Maximum-Flux-Residual          L2-NORM 
          0                 1           2             4    7     1      -0.1233515293E-01       4    7    1        -0.6472797791E+00      0.1587652481E+01
          0                 2           2             4    7     1       0.1199872935E-02       4    7    1         0.6472791103E-01      0.1587646236E+00
          0                 3           1             4    7     1      -0.8170690862E-04       4    7    1        -0.4530956364E-02      0.1111349808E-01

    ------------------------------------------------
       NWT REQUIRED            3 OUTER ITERATIONS 
       AND A TOTAL OF          5 INNER ITERATIONS.
    ------------------------------------------------

 NO OUTPUT CONTROL FOR STRESS PERIOD   42   TIME STEP    5
 
 SOLVING FOR HEAD 
                                                   Max.-Head-Change                         Max.-Flux-Residual
  Residual-Control   Outer-Iter.   Inner-Iter.     Column Row Layer    Maximum-Head-Change  Column Row Layer    Maximum-Flux-Residual          L2-NORM 
          0                 1           2             4    7     1      -0.1220947589E-01       4    7    1        -0.6409145701E+00      0.1554904589E+01
          0                 2           2             4    7     1       0.1187647881E-02       4    7    1         0.6409138284E-01      0.1554898477E+00
          0                 3           1             4    7     1      -0.8087442884E-04       4    7    1        -0.4486399442E-02      0.1088427358E-01

    ------------------------------------------------
       NWT REQUIRED            3 OUTER ITERATIONS 
       AND A TOTAL OF          5 INNER ITERATIONS.
    ------------------------------------------------

 NO OUTPUT CONTROL FOR STRESS PERIOD   42   TIME STEP    6
 
 SOLVING FOR HEAD 
                                                   Max.-Head-Change                         Max.-Flux-Residual
  Residual-Control   Outer-Iter.   Inner-Iter.     Column Row Layer    Maximum-Head-Change  Column Row Layer    Maximum-Flux-Residual          L2-NORM 
          0                 1           2             4    7     1      -0.1208088570E-01       4    7    1        -0.6343762574E+00      0.1523518529E+01
          0                 2           2             4    7     1       0.1175139473E-02       4    7    1         0.6343754520E-01      0.1523512526E+00
          0                 3           1             4    7     1      -0.8002265345E-04       4    7    1        -0.4440630853E-02      0.1066455775E-01

    ------------------------------------------------
       NWT REQUIRED            3 OUTER ITERATIONS 
       AND A TOTAL OF          5 INNER ITERATIONS.
    ------------------------------------------------

 NO OUTPUT CONTROL FOR STRESS PERIOD   42   TIME STEP    7
 
 SOLVING FOR HEAD 
                                                   Max.-Head-Change                         Max.-Flux-Residual
  Residual-Control   Outer-Iter.   Inner-Iter.     Column Row Layer    Maximum-Head-Change  Column Row Layer    Maximum-Flux-Residual          L2-NORM 
          0                 1           2             4    7     1      -0.1195003887E-01       4    7    1        -0.6277015559E+00      0.1493412602E+01
          0                 2           2             4    7     1       0.1162411566E-02       4    7    1         0.6277006950E-01      0.1493406534E+00
          0                 3           1             4    7     1      -0.7915593108E-04       4    7    1        -0.4393907583E-02      0.1045381502E-01

    ------------------------------------------------
       NWT REQUIRED            3 OUTER ITERATIONS 
       AND A TOTAL OF          5 INNER ITERATIONS.
    ------------------------------------------------

 NO OUTPUT CONTROL FOR STRESS PERIOD   42   TIME STEP    8
 
 SOLVING FOR HEAD 
                                                   Max.-Head-Change                         Max.-Flux-Residual
  Residual-Control   Outer-Iter.   Inner-Iter.     Column Row Layer    Maximum-Head-Change  Column Row Layer    Maximum-Flux-Residual          L2-NORM 
          0                 1           2             4    7     1      -0.1181715348E-01       4    7    1        -0.6209025305E+00      0.1464509887E+01
          0                 2           2             4    7     1       0.1149485374E-02       4    7    1         0.6209016220E-01      0.1464503938E+00
          0                 3           1             4    7     1      -0.7827570579E-04       4    7    1        -0.4346314091E-02      0.1025151644E-01

    ------------------------------------------------
       NWT REQUIRED            3 OUTER ITERATIONS 
       AND A TOTAL OF          5 INNER ITERATIONS.
    ------------------------------------------------

 NO OUTPUT CONTROL FOR STRESS PERIOD   42   TIME STEP    9
 
 SOLVING FOR HEAD 
                                                   Max.-Head-Change                         Max.-Flux-Residual
  Residual-Control   Outer-Iter.   Inner-Iter.     Column Row Layer    Maximum-Head-Change  Column Row Layer    Maximum-Flux-Residual          L2-NORM 
          0                 1           2             4    7     1      -0.1168269709E-01       4    7    1        -0.6140051368E+00      0.1436742968E+01
          0                 2           2             4    7     1       0.1136406377E-02       4    7    1         0.6140041877E-01      0.1436737052E+00
          0                 3           1             4    7     1      -0.7738507551E-04       4    7    1        -0.4298032077E-02      0.1005713430E-01

    ------------------------------------------------
       NWT REQUIRED            3 OUTER ITERATIONS 
       AND A TOTAL OF          5 INNER ITERATIONS.
    ------------------------------------------------

 NO OUTPUT CONTROL FOR STRESS PERIOD   42   TIME STEP   10
 
 SOLVING FOR HEAD 
                                                   Max.-Head-Change                         Max.-Flux-Residual
  Residual-Control   Outer-Iter.   Inner-Iter.     Column Row Layer    Maximum-Head-Change  Column Row Layer    Maximum-Flux-Residual          L2-NORM 
          0                 1           2             4    7     1      -0.1154670687E-01       4    7    1        -0.6070116460E+00      0.1410039612E+01
          0                 2           2             4    7     1       0.1123178189E-02       4    7    1         0.6070106625E-01      0.1410033835E+00
          0                 3           1             4    7     1      -0.7648428521E-04       4    7    1        -0.4249077409E-02      0.9870206195E-02

    ------------------------------------------------
       NWT REQUIRED            3 OUTER ITERATIONS 
       AND A TOTAL OF          5 INNER ITERATIONS.
    ------------------------------------------------

 NO OUTPUT CONTROL FOR STRESS PERIOD   42   TIME STEP   11
 
 SOLVING FOR HEAD 
                                                   Max.-Head-Change                         Max.-Flux-Residual
  Residual-Control   Outer-Iter.   Inner-Iter.     Column Row Layer    Maximum-Head-Change  Column Row Layer    Maximum-Flux-Residual          L2-NORM 
          0                 1           2             4    7     1      -0.1140961131E-01       4    7    1        -0.5999459561E+00      0.1384342411E+01
          0                 2           2             4    7     1       0.1109842491E-02       4    7    1         0.5999449442E-01      0.1384336591E+00
          0                 3           1             4    7     1      -0.7557617401E-04       4    7    1        -0.4199617373E-02      0.9690331335E-02

    ------------------------------------------------
       NWT REQUIRED            3 OUTER ITERATIONS 
       AND A TOTAL OF          5 INNER ITERATIONS.
    ------------------------------------------------

 NO OUTPUT CONTROL FOR STRESS PERIOD   42   TIME STEP   12
 
 SOLVING FOR HEAD 
                                                   Max.-Head-Change                         Max.-Flux-Residual
  Residual-Control   Outer-Iter.   Inner-Iter.     Column Row Layer    Maximum-Head-Change  Column Row Layer    Maximum-Flux-Residual          L2-NORM 
          0                 1           2             4    7     1      -0.1127168185E-01       4    7    1        -0.5928229603E+00      0.1359605381E+01
          0                 2           2             4    7     1       0.1096425685E-02       4    7    1         0.5928219254E-01      0.1359599650E+00
          0                 3           1             4    7     1      -0.7466253992E-04       4    7    1        -0.4149756264E-02      0.9517179091E-02

    ------------------------------------------------
       NWT REQUIRED            3 OUTER ITERATIONS 
       AND A TOTAL OF          5 INNER ITERATIONS.
    ------------------------------------------------

 NO OUTPUT CONTROL FOR STRESS PERIOD   42   TIME STEP   13
 
 SOLVING FOR HEAD 
                                                   Max.-Head-Change                         Max.-Flux-Residual
  Residual-Control   Outer-Iter.   Inner-Iter.     Column Row Layer    Maximum-Head-Change  Column Row Layer    Maximum-Flux-Residual          L2-NORM 
          0                 1           2             4    7     1      -0.1113316302E-01       4    7    1        -0.5856567318E+00      0.1335768912E+01
          0                 2           2             4    7     1       0.1082893391E-02       4    7    1         0.5856556786E-01      0.1334603783E+00
          0                 3           1             4    7     1      -0.7374104070E-04       4    7    1        -0.4099592524E-02      0.9342196105E-02

    ------------------------------------------------
       NWT REQUIRED            3 OUTER ITERATIONS 
       AND A TOTAL OF          5 INNER ITERATIONS.
    ------------------------------------------------

 NO OUTPUT CONTROL FOR STRESS PERIOD   42   TIME STEP   14
 
 SOLVING FOR HEAD 
                                                   Max.-Head-Change                         Max.-Flux-Residual
  Residual-Control   Outer-Iter.   Inner-Iter.     Column Row Layer    Maximum-Head-Change  Column Row Layer    Maximum-Flux-Residual          L2-NORM 
          0                 1           2             4    7     1      -0.1099435476E-01       4    7    1        -0.5784557181E+00      0.1312879060E+01
          0                 2           2             4    7     1       0.1069449302E-02       4    7    1         0.5784546534E-01      0.1312873929E+00
          0                 3           1             4    7     1      -0.7282554825E-04       4    7    1        -0.4049185332E-02      0.9190095954E-02

    ------------------------------------------------
       NWT REQUIRED            3 OUTER ITERATIONS 
       AND A TOTAL OF          5 INNER ITERATIONS.
    ------------------------------------------------

 NO OUTPUT CONTROL FOR STRESS PERIOD   42   TIME STEP   15
 
 SOLVING FOR HEAD 
                                                   Max.-Head-Change                         Max.-Flux-Residual
  Residual-Control   Outer-Iter.   Inner-Iter.     Column Row Layer    Maximum-Head-Change  Column Row Layer    Maximum-Flux-Residual          L2-NORM 
          0                 1           2             4    7     1      -0.1085555278E-01       4    7    1        -0.5712481653E+00      0.1290858726E+01
          0                 2           2             4    7     1       0.1055947643E-02       4    7    1         0.5712470916E-01      0.1290853596E+00
          0                 3           1             4    7     1      -0.7190613531E-04       4    7    1        -0.3998732379E-02      0.9035949329E-02

    ------------------------------------------------
       NWT REQUIRED            3 OUTER ITERATIONS 
       AND A TOTAL OF          5 INNER ITERATIONS.
    ------------------------------------------------

 NO OUTPUT CONTROL FOR STRESS PERIOD   42   TIME STEP   16
 
 SOLVING FOR HEAD 
                                                   Max.-Head-Change                         Max.-Flux-Residual
  Residual-Control   Outer-Iter.   Inner-Iter.     Column Row Layer    Maximum-Head-Change  Column Row Layer    Maximum-Flux-Residual          L2-NORM 
          0                 1           2             4    7     1      -0.1071686167E-01       4    7    1        -0.5640367106E+00      0.1269599593E+01
          0                 2           2             4    7     1       0.1042456773E-02       4    7    1         0.5640356312E-01      0.1269594586E+00
          0                 3           1             4    7     1      -0.7098745723E-04       4    7    1        -0.3948252143E-02      0.8887142238E-02

    ------------------------------------------------
       NWT REQUIRED            3 OUTER ITERATIONS 
       AND A TOTAL OF          5 INNER ITERATIONS.
    ------------------------------------------------

 NO OUTPUT CONTROL FOR STRESS PERIOD   42   TIME STEP   17
 
 SOLVING FOR HEAD 
                                                   Max.-Head-Change                         Max.-Flux-Residual
  Residual-Control   Outer-Iter.   Inner-Iter.     Column Row Layer    Maximum-Head-Change  Column Row Layer    Maximum-Flux-Residual          L2-NORM 
          0                 1           2             4    7     1      -0.1057844864E-01       4    7    1        -0.5568310081E+00      0.1249065491E+01
          0                 2           2             4    7     1       0.1028992957E-02       4    7    1         0.5568299263E-01      0.1249060483E+00
          0                 3           1             4    7     1      -0.7007062131E-04       4    7    1        -0.3897812192E-02      0.8743402094E-02

    ------------------------------------------------
       NWT REQUIRED            3 OUTER ITERATIONS 
       AND A TOTAL OF          5 INNER ITERATIONS.
    ------------------------------------------------

 NO OUTPUT CONTROL FOR STRESS PERIOD   42   TIME STEP   18
 
 SOLVING FOR HEAD 
                                                   Max.-Head-Change                         Max.-Flux-Residual
  Residual-Control   Outer-Iter.   Inner-Iter.     Column Row Layer    Maximum-Head-Change  Column Row Layer    Maximum-Flux-Residual          L2-NORM 
          0                 1           2             4    7     1      -0.1044033765E-01       4    7    1        -0.5496324048E+00      0.1229220229E+01
          0                 2           2             4    7     1       0.1015558526E-02       4    7    1         0.5496313231E-01      0.1229215242E+00
          0                 3           1             4    7     1      -0.6915578610E-04       4    7    1        -0.3847421943E-02      0.8604934566E-02

    ------------------------------------------------
       NWT REQUIRED            3 OUTER ITERATIONS 
       AND A TOTAL OF          5 INNER ITERATIONS.
    ------------------------------------------------

 NO OUTPUT CONTROL FOR STRESS PERIOD   42   TIME STEP   19
 
 SOLVING FOR HEAD 
                                                   Max.-Head-Change                         Max.-Flux-Residual
  Residual-Control   Outer-Iter.   Inner-Iter.     Column Row Layer    Maximum-Head-Change  Column Row Layer    Maximum-Flux-Residual          L2-NORM 
          0                 1           2             4    7     1      -0.1030294257E-01       4    7    1        -0.5424641101E+00      0.1210034742E+01
          0                 2           2             4    7     1       0.1002193737E-02       4    7    1         0.5424630314E-01      0.1210034245E+00
          0                 3           1             4    7     1      -0.6824569371E-04       4    7    1        -0.3797243877E-02      0.8470219386E-02

    ------------------------------------------------
       NWT REQUIRED            3 OUTER ITERATIONS 
       AND A TOTAL OF          5 INNER ITERATIONS.
    ------------------------------------------------

 NO OUTPUT CONTROL FOR STRESS PERIOD   42   TIME STEP   20
 
 SOLVING FOR HEAD 
                                                   Max.-Head-Change                         Max.-Flux-Residual
  Residual-Control   Outer-Iter.   Inner-Iter.     Column Row Layer    Maximum-Head-Change  Column Row Layer    Maximum-Flux-Residual          L2-NORM 
          0                 1           2             4    7     1      -0.1016612011E-01       4    7    1        -0.5353182931E+00      0.1191471240E+01
          0                 2           2             4    7     1       0.9888846514E-03       4    7    1         0.5353172193E-01      0.1191466298E+00
          0                 3           1             4    7     1      -0.6733939448E-04       4    7    1        -0.3747223189E-02      0.8340244557E-02

    ------------------------------------------------
       NWT REQUIRED            3 OUTER ITERATIONS 
       AND A TOTAL OF          5 INNER ITERATIONS.
    ------------------------------------------------

 NO OUTPUT CONTROL FOR STRESS PERIOD   42   TIME STEP   21
 
 SOLVING FOR HEAD 
                                                   Max.-Head-Change                         Max.-Flux-Residual
  Residual-Control   Outer-Iter.   Inner-Iter.     Column Row Layer    Maximum-Head-Change  Column Row Layer    Maximum-Flux-Residual          L2-NORM 
          0                 1           2             4    7     1      -0.1003026455E-01       4    7    1        -0.5282168128E+00      0.1173515333E+01
          0                 2           2             4    7     1       0.9756696210E-03       4    7    1         0.5282157460E-01      0.1173510529E+00
          0                 3           1             4    7     1      -0.6643949951E-04       4    7    1        -0.3697512816E-02      0.8214546336E-02

    ------------------------------------------------
       NWT REQUIRED            3 OUTER ITERATIONS 
       AND A TOTAL OF          5 INNER ITERATIONS.
    ------------------------------------------------

 NO OUTPUT CONTROL FOR STRESS PERIOD   42   TIME STEP   22
 
 SOLVING FOR HEAD 
                                                   Max.-Head-Change                         Max.-Flux-Residual
  Residual-Control   Outer-Iter.   Inner-Iter.     Column Row Layer    Maximum-Head-Change  Column Row Layer    Maximum-Flux-Residual          L2-NORM 
          0                 1           2             4    7     1      -0.9895205998E-02       4    7    1        -0.5211508248E+00      0.1156122118E+01
          0                 2           2             4    7     1       0.9625321204E-03       4    7    1         0.5211497665E-01      0.1156117294E+00
          0                 3           1             4    7     1      -0.6554488460E-04       4    7    1        -0.3648050943E-02      0.8092782100E-02

    ------------------------------------------------
       NWT REQUIRED            3 OUTER ITERATIONS 
       AND A TOTAL OF          5 INNER ITERATIONS.
    ------------------------------------------------

 NO OUTPUT CONTROL FOR STRESS PERIOD   42   TIME STEP   23
 
 SOLVING FOR HEAD 
                                                   Max.-Head-Change                         Max.-Flux-Residual
  Residual-Control   Outer-Iter.   Inner-Iter.     Column Row Layer    Maximum-Head-Change  Column Row Layer    Maximum-Flux-Residual          L2-NORM 
          0                 1           2             4    7     1      -0.9761318328E-02       4    7    1        -0.5141408063E+00      0.1139284308E+01
          0                 2           2             4    7     1       0.9495085170E-03       4    7    1         0.5141397580E-01      0.1139279765E+00
          0                 3           1             4    7     1      -0.6465802523E-04       4    7    1        -0.3598980860E-02      0.7974945139E-02

    ------------------------------------------------
       NWT REQUIRED            3 OUTER ITERATIONS 
       AND A TOTAL OF          5 INNER ITERATIONS.
    ------------------------------------------------

 NO OUTPUT CONTROL FOR STRESS PERIOD   42   TIME STEP   24
 
 SOLVING FOR HEAD 
                                                   Max.-Head-Change                         Max.-Flux-Residual
  Residual-Control   Outer-Iter.   Inner-Iter.     Column Row Layer    Maximum-Head-Change  Column Row Layer    Maximum-Flux-Residual          L2-NORM 
          0                 1           2             4    7     1      -0.9628412299E-02       4    7    1        -0.5071768569E+00      0.1122961601E+01
          0                 2           2             4    7     1       0.9365804025E-03       4    7    1         0.5071758201E-01      0.1122956897E+00
          0                 3           1             4    7     1      -0.6377766847E-04       4    7    1        -0.3550233259E-02      0.7860662549E-02

    ------------------------------------------------
       NWT REQUIRED            3 OUTER ITERATIONS 
       AND A TOTAL OF          5 INNER ITERATIONS.
    ------------------------------------------------

 NO OUTPUT CONTROL FOR STRESS PERIOD   42   TIME STEP   25
 
 SOLVING FOR HEAD 
                                                   Max.-Head-Change                         Max.-Flux-Residual
  Residual-Control   Outer-Iter.   Inner-Iter.     Column Row Layer    Maximum-Head-Change  Column Row Layer    Maximum-Flux-Residual          L2-NORM 
          0                 1           2             4    7     1      -0.9496844918E-02       4    7    1        -0.5002784494E+00      0.1107153661E+01
          0                 2           2             4    7     1       0.9237825036E-03       4    7    1         0.5002774253E-01      0.1107149166E+00
          0                 3           1             4    7     1      -0.6290617879E-04       4    7    1        -0.3501944459E-02      0.7750024290E-02

    ------------------------------------------------
       NWT REQUIRED            3 OUTER ITERATIONS 
       AND A TOTAL OF          5 INNER ITERATIONS.
    ------------------------------------------------

 NO OUTPUT CONTROL FOR STRESS PERIOD   42   TIME STEP   26
 
 SOLVING FOR HEAD 
                                                   Max.-Head-Change                         Max.-Flux-Residual
  Residual-Control   Outer-Iter.   Inner-Iter.     Column Row Layer    Maximum-Head-Change  Column Row Layer    Maximum-Flux-Residual          L2-NORM 
          0                 1           2             4    7     1      -0.9366410616E-02       4    7    1        -0.4934348098E+00      0.1091819698E+01
          0                 2           2             4    7     1       0.9110948240E-03       4    7    1         0.4934337993E-01      0.1091815191E+00
          0                 3           1             4    7     1      -0.6204219508E-04       4    7    1        -0.3454039059E-02      0.7642685737E-02

    ------------------------------------------------
       NWT REQUIRED            3 OUTER ITERATIONS 
       AND A TOTAL OF          5 INNER ITERATIONS.
    ------------------------------------------------

 NO OUTPUT CONTROL FOR STRESS PERIOD   42   TIME STEP   27
 
 SOLVING FOR HEAD 
                                                   Max.-Head-Change                         Max.-Flux-Residual
  Residual-Control   Outer-Iter.   Inner-Iter.     Column Row Layer    Maximum-Head-Change  Column Row Layer    Maximum-Flux-Residual          L2-NORM 
          0                 1           2             4    7     1      -0.9237445913E-02       4    7    1        -0.4866645632E+00      0.1076946571E+01
          0                 2           2             4    7     1       0.8985500971E-03       4    7    1         0.4866635670E-01      0.1076942117E+00
          0                 3           1             4    7     1      -0.6118794527E-04       4    7    1        -0.3406647386E-02      0.7538575635E-02

    ------------------------------------------------
       NWT REQUIRED            3 OUTER ITERATIONS 
       AND A TOTAL OF          5 INNER ITERATIONS.
    ------------------------------------------------

 NO OUTPUT CONTROL FOR STRESS PERIOD   42   TIME STEP   28
 
 SOLVING FOR HEAD 
                                                   Max.-Head-Change                         Max.-Flux-Residual
  Residual-Control   Outer-Iter.   Inner-Iter.     Column Row Layer    Maximum-Head-Change  Column Row Layer    Maximum-Flux-Residual          L2-NORM 
          0                 1           2             4    7     1      -0.9109733534E-02       4    7    1        -0.4799558745E+00      0.1062516027E+01
          0                 2           2             4    7     1       0.8861271885E-03       4    7    1         0.4799548935E-01      0.1062511576E+00
          0                 3           1             4    7     1      -0.6034199110E-04       4    7    1        -0.3359686644E-02      0.7437563435E-02

    ------------------------------------------------
       NWT REQUIRED            3 OUTER ITERATIONS 
       AND A TOTAL OF          5 INNER ITERATIONS.
    ------------------------------------------------

 NO OUTPUT CONTROL FOR STRESS PERIOD   42   TIME STEP   29
 
 SOLVING FOR HEAD 
                                                   Max.-Head-Change                         Max.-Flux-Residual
  Residual-Control   Outer-Iter.   Inner-Iter.     Column Row Layer    Maximum-Head-Change  Column Row Layer    Maximum-Flux-Residual          L2-NORM 
          0                 1           2             4    7     1      -0.8983595494E-02       4    7    1        -0.4733267608E+00      0.1048515161E+01
          0                 2           2             4    7     1       0.8738574204E-03       4    7    1         0.4733257954E-01      0.1048510695E+00
          0                 3           1             4    7     1      -0.5950646475E-04       4    7    1        -0.3313282906E-02      0.7339547474E-02

    ------------------------------------------------
       NWT REQUIRED            3 OUTER ITERATIONS 
       AND A TOTAL OF          5 INNER ITERATIONS.
    ------------------------------------------------

 NO OUTPUT CONTROL FOR STRESS PERIOD   42   TIME STEP   30



 STREAM LISTING     PERIOD     42   STEP       30

 LAYER ROW COL. STREAM  RCH.  FLOW INTO     FLOW TO   FLOW OUT OF   OVRLND.     DIRECT     STREAM       STREAM     STREAM     STREAM   STREAMBED  STREAMBED
                SEG.NO.  NO.  STRM. RCH.    AQUIFER    STRM. RCH.    RUNOFF     PRECIP       ET          HEAD       DEPTH      WIDTH   CONDCTNC.   GRADIENT

   1    1    1     1     1    1.9000E+01  2.1427E-01   1.8786E+01  0.000E+00  0.000E+00  0.000E+00  1.09413E+03  1.082E+00  1.166E+01  5.249E-02  1.361E+00
   1    2    2     1     2    1.8786E+01  3.3054E-01   1.8455E+01  0.000E+00  0.000E+00  0.000E+00  1.08914E+03  1.077E+00  1.158E+01  8.107E-02  1.359E+00
   1    3    3     1     3    1.8455E+01  2.8064E-01   1.8175E+01  0.000E+00  0.000E+00  0.000E+00  1.08349E+03  1.072E+00  1.149E+01  6.892E-02  1.357E+00
   1    3    4     1     4    1.8175E+01  2.5740E-01   1.7917E+01  0.000E+00  0.000E+00  0.000E+00  1.07848E+03  1.068E+00  1.140E+01  6.328E-02  1.356E+00
   1    4    5     2     1    1.5917E+01  3.0542E-01   1.5612E+01  0.000E+00  0.000E+00  0.000E+00  1.07285E+03  9.157E-01  1.200E+01  7.800E-02  1.305E+00
   1    5    6     2     2    1.5612E+01  2.3438E-01   1.5377E+01  0.000E+00  0.000E+00  0.000E+00  1.06742E+03  9.063E-01  1.200E+01  6.000E-02  1.302E+00
   1    6    6     2     3    1.5377E+01  2.3388E-01   1.5143E+01  0.000E+00  0.000E+00  0.000E+00  1.06269E+03  8.980E-01  1.200E+01  6.000E-02  1.299E+00
   1    7    6     2     4    1.5143E+01  2.3338E-01   1.4910E+01  0.000E+00  0.000E+00  0.000E+00  1.05797E+03  8.897E-01  1.200E+01  6.000E-02  1.297E+00
   1    8    6     2     5    1.4910E+01  2.3289E-01   1.4677E+01  0.000E+00  0.000E+00  0.000E+00  1.05324E+03  8.814E-01  1.200E+01  6.000E-02  1.294E+00
   1    3    5     3     1    2.0000E+00  2.8252E-01   1.7175E+00  0.000E+00  0.000E+00  0.000E+00  1.07555E+03  1.909E+00  9.636E+00  7.227E-02  1.955E+00
   1    3    6     3     2    1.7175E+00  2.4905E-01   1.4684E+00  0.000E+00  0.000E+00  0.000E+00  1.07264E+03  1.727E+00  8.909E+00  6.682E-02  1.864E+00
   1    3    7     3     3    1.4684E+00  1.9718E-01   1.2712E+00  0.000E+00  0.000E+00  0.000E+00  1.06987E+03  1.555E+00  8.218E+00  5.547E-02  1.777E+00
   1    4    8     3     4    1.2712E+00  2.2567E-01   1.0456E+00  0.000E+00  0.000E+00  0.000E+00  1.06682E+03  1.364E+00  7.455E+00  6.709E-02  1.682E+00
   1    5    8     3     5    1.0456E+00  1.5790E-01   8.8768E-01  0.000E+00  0.000E+00  0.000E+00  1.06362E+03  1.164E+00  6.655E+00  4.991E-02  1.582E+00
   1    6    8     3     6    8.8768E-01  5.5980E-02   8.3170E-01  0.000E+00  0.000E+00  0.000E+00  1.06158E+03  1.036E+00  6.145E+00  1.844E-02  1.518E+00
   1    5   10     4     1    1.0000E+01  9.0919E-02   9.9091E+00  0.000E+00  0.000E+00  0.000E+00  1.07836E+03  6.368E-01  1.000E+01  2.500E-02  1.212E+00
   1    5    9     4     2    9.9091E+00  1.8158E-01   9.7275E+00  0.000E+00  0.000E+00  0.000E+00  1.07154E+03  6.315E-01  1.000E+01  5.000E-02  1.211E+00
   1    6    8     4     3    9.7275E+00  1.2689E-01   9.6006E+00  0.000E+00  0.000E+00  0.000E+00  1.06381E+03  6.256E-01  1.000E+01  3.500E-02  1.209E+00
   1    6    8     5     1    1.0432E+01  2.2686E-01   1.0205E+01  0.000E+00  0.000E+00  0.000E+00  1.05868E+03  6.790E-01  1.542E+01  6.166E-02  1.226E+00
   1    7    7     5     2    1.0205E+01  2.7894E-01   9.9265E+00  0.000E+00  0.000E+00  0.000E+00  1.05417E+03  6.732E-01  1.519E+01  7.594E-02  1.224E+00
   1    8    7     5     3    9.9265E+00  1.9221E-01   9.7343E+00  0.000E+00  0.000E+00  0.000E+00  1.04992E+03  6.676E-01  1.497E+01  5.241E-02  1.223E+00
   1    8    6     5     4    9.7343E+00  1.3577E-01   9.5985E+00  0.000E+00  0.000E+00  0.000E+00  1.04691E+03  6.637E-01  1.482E+01  3.706E-02  1.221E+00
   1    9    6     6     1    2.4276E+01  2.5176E-01   2.4024E+01  0.000E+00  0.000E+00  0.000E+00  1.04392E+03  1.196E+00  1.200E+01  6.000E-02  1.399E+00
   1   10    7     6     2    2.4024E+01  2.5131E-01   2.3773E+01  0.000E+00  0.000E+00  0.000E+00  1.03937E+03  1.188E+00  1.200E+01  6.000E-02  1.396E+00
   1   11    7     6     3    2.3773E+01  2.5086E-01   2.3522E+01  0.000E+00  0.000E+00  0.000E+00  1.03482E+03  1.181E+00  1.200E+01  6.000E-02  1.394E+00
   1   12    7     6     4    2.3522E+01  2.5041E-01   2.3271E+01  0.000E+00  0.000E+00  0.000E+00  1.03026E+03  1.173E+00  1.200E+01  6.000E-02  1.391E+00
   1   13    7     6     5    2.3271E+01  1.1116E-02   2.3260E+01  0.000E+00  0.000E+00  0.000E+00  1.02708E+03  1.170E+00  1.200E+01  2.400E-02  1.544E-01
   1   14    9     7     1    1.5000E+02  1.3703E+00   1.4863E+02  0.000E+00  0.000E+00  0.000E+00  1.03987E+03  2.288E+00  5.529E+01  5.593E-01  8.167E-01
   1   13    8     7     2    1.4863E+02  1.9710E+00   1.4666E+02  0.000E+00  0.000E+00  0.000E+00  1.03478E+03  2.279E+00  5.525E+01  6.147E-01  1.069E+00
   1   13    7     7     3    1.4666E+02  1.7158E+00   1.4494E+02  0.000E+00  0.000E+00  0.000E+00  1.02969E+03  2.269E+00  5.521E+01  5.584E-01  1.024E+00
   1   13    6     8     1    1.6820E+02  1.1499E+00   1.6705E+02  0.000E+00  0.000E+00  0.000E+00  1.02481E+03  2.937E+00  4.258E+01  4.339E-01  8.834E-01
   1   13    5     8     2    1.6705E+02  3.8557E-01   1.6667E+02  0.000E+00  0.000E+00  0.000E+00  1.01856E+03  2.932E+00  4.251E+01  4.332E-01  2.967E-01
   1   13    4     8     3    1.6667E+02 -1.7365E+00   1.6840E+02  0.000E+00  0.000E+00  0.000E+00  1.01231E+03  2.936E+00  4.257E+01  4.338E+00 -1.334E-01
   1   13    3     8     4    1.6840E+02 -3.3036E+00   1.7171E+02  0.000E+00  0.000E+00  0.000E+00  1.00608E+03  2.953E+00  4.281E+01  4.363E+00 -2.524E-01
   1   13    2     8     5    1.7171E+02 -2.4914E+00   1.7420E+02  0.000E+00  0.000E+00  0.000E+00  9.99846E+02  2.971E+00  4.308E+01  4.390E+00 -1.892E-01
   1   13    1     8     6    1.7420E+02 -1.9603E+00   1.7616E+02  0.000E+00  0.000E+00  0.000E+00  9.94861E+02  2.986E+00  4.329E+01  2.647E+00 -2.469E-01





UNSATURATED ZONE PACKAGE VOLUMETRIC BUDGET FOR  TIME STEP    30 STRESS PERIOD   42
  ------------------------------------------------------------------------------



     CUMULATIVE VOLUMES      L**3       RATES FOR THIS TIME STEP      L**3/T
     ------------------                 ------------------------

           IN:                                      IN:
           ---                                      ---
        INFILTRATION =  1549721957.2619          INFILTRATION =           8.3175

          OUT:                                     OUT:
          ----                                     ----
              UZF ET =  1332481947.0710                UZF ET =           8.3175
        UZF RECHARGE =   217165852.3464          UZF RECHARGE =       0.0000E+00

            IN - OUT =       74157.8444              IN - OUT =       0.0000E+00

          STORAGE:                                 STORAGE:
          --------                                 --------
      STORAGE CHANGE =       74176.1112        STORAGE CHANGE =       8.3988E-15

 PERCENT DISCREPANCY IS DIFFERENCE BETWEEN IN-OUT MINUS CHANGE IN STORAGE
 DIVIDED BY THE AVERAGE OF IN AND OUT TIMES 100

 PERCENT DISCREPANCY =           0.00     PERCENT DISCREPANCY =           0.00






1
  VOLUMETRIC BUDGET FOR AGRICULTURAL FIELDS AT  END OF TIME STEP   30, STRESS PERIOD  42
  ------------------------------------------------------------------------------

     CUMULATIVE VOLUMES      L**3       RATES FOR THIS TIME STEP      L**3/T
     ------------------                 ------------------------

           IN:                                      IN:
           ---                                      ---
               AG WELLS  =  1458261632.0000                 AG WELLS  =           7.4700
      DIVERSION SEGMENTS =           0.0000        DIVERSION SEGMENTS =           0.0000
           GW IRRIGATION =           0.0000             GW IRRIGATION =           0.0000
           SW IRRIGATION =           0.0000             SW IRRIGATION =           0.0000
        SYSTEM LOSSES GW =           0.0000          SYSTEM LOSSES GW =           0.0000
        SYSTEM LOSSES SW =           0.0000          SYSTEM LOSSES SW =           0.0000

                TOTAL IN =  1458261632.0000                  TOTAL IN =           7.4700

          OUT:                                     OUT:
          ----                                     ----
               AG WELLS  =           0.0000                 AG WELLS  =           0.0000
      DIVERSION SEGMENTS =           0.0000        DIVERSION SEGMENTS =           0.0000
           GW IRRIGATION =  1458261632.0000             GW IRRIGATION =           7.4700
           SW IRRIGATION =           0.0000             SW IRRIGATION =           0.0000
        SYSTEM LOSSES GW =           0.0000          SYSTEM LOSSES GW =           0.0000
        SYSTEM LOSSES SW =           0.0000          SYSTEM LOSSES SW =           0.0000

               TOTAL OUT =  1458261632.0000                 TOTAL OUT =           7.4700

                IN - OUT =           0.0000                  IN - OUT =           0.0000

     PERCENT DISCREPANCY =           0.00         PERCENT DISCREPANCY =           0.00



1
  VOLUMETRIC BUDGET FOR ENTIRE MODEL AT END OF TIME STEP   30, STRESS PERIOD  42
  ------------------------------------------------------------------------------

     CUMULATIVE VOLUMES      L**3       RATES FOR THIS TIME STEP      L**3/T
     ------------------                 ------------------------

           IN:                                      IN:
           ---                                      ---
             STORAGE     =  1908300416.0000               STORAGE     =           5.4865
       CONSTANT HEAD     =           0.0000         CONSTANT HEAD     =           0.0000
     HEAD DEP BOUNDS     =    30874504.0000       HEAD DEP BOUNDS     =           0.2881
      STREAM LEAKAGE     =  1322913664.0000        STREAM LEAKAGE     =          12.3324
        UZF RECHARGE     =   217165808.0000          UZF RECHARGE     =           0.0000
               GW ET     =           0.0000                 GW ET     =           0.0000
     SURFACE LEAKAGE     =           0.0000       SURFACE LEAKAGE     =           0.0000
           AG WELLS      =           0.0000             AG WELLS      =           0.0000

                TOTAL IN =  3479254528.0000                  TOTAL IN =          18.1070

          OUT:                                     OUT:
          ----                                     ----
             STORAGE     =   876219136.0000               STORAGE     =           0.8550
       CONSTANT HEAD     =           0.0000         CONSTANT HEAD     =           0.0000
     HEAD DEP BOUNDS     =    31511718.0000       HEAD DEP BOUNDS     =           0.2888
      STREAM LEAKAGE     =  1095752064.0000        STREAM LEAKAGE     =           9.4918
        UZF RECHARGE     =           0.0000          UZF RECHARGE     =           0.0000
               GW ET     =    17516202.0000                 GW ET     =           0.0000
     SURFACE LEAKAGE     =           0.0000       SURFACE LEAKAGE     =           0.0000
           AG WELLS      =  1458261632.0000             AG WELLS      =           7.4700

               TOTAL OUT =  3479260672.0000                 TOTAL OUT =          18.1056

                IN - OUT =       -6144.0000                  IN - OUT =       1.3294E-03

     PERCENT DISCREPANCY =          -0.00         PERCENT DISCREPANCY =           0.01






         TIME SUMMARY AT END OF TIME STEP   30 IN STRESS PERIOD   42
                    SECONDS     MINUTES      HOURS       DAYS        YEARS
                    -----------------------------------------------------------
   TIME STEP LENGTH  87667.      1461.1      24.352      1.0147     2.77799E-03
 STRESS PERIOD TIME 2.63000E+06  43833.      730.56      30.440     8.33397E-02
         TOTAL TIME 1.07916E+08 1.79859E+06  29977.      1249.0      3.4196    
1
1
                            STRESS PERIOD NO.   43, LENGTH =   2630000.    
                            -----------------------------------------------

                              NUMBER OF TIME STEPS =    30

                               MULTIPLIER FOR DELT =     1.000

                            INITIAL TIME STEP SIZE =   87666.66    

 REUSING NON-PARAMETER GHB CELLS FROM LAST STRESS PERIOD

      2 GHB CELLS

 REUSING STREAM SEGMENT DATA FROM LAST STRESS PERIOD



            AREAL INFILTRATION RATE
 READING ON UNIT   19 WITH FORMAT: (FREE)              

            1           2           3           4           5           6           7           8           9          10
 ........................................................................................................................
   1   1.0000E-10  2.0000E-10   0.000       0.000       0.000       0.000       0.000       0.000       0.000       0.000    
   2   2.0000E-10  1.0000E-10  2.0000E-10   0.000       0.000      8.0000E-10  8.0000E-10  5.0000E-10   0.000       0.000    
   3    0.000      5.0000E-10  1.0000E-10  1.0000E-10  8.0000E-10  8.0000E-10  5.0000E-10  5.0000E-10   0.000       0.000    
   4   8.0000E-10  5.0000E-10  1.0000E-10  1.0000E-10  1.0000E-10  1.0000E-10  1.0000E-10  1.0000E-10  2.0000E-10   0.000    
   5   8.0000E-10  5.0000E-10  1.0000E-10  1.0000E-10  1.0000E-10  1.0000E-10  1.0000E-10  1.0000E-10  1.0000E-10  1.0000E-10
   6   8.0000E-10  5.0000E-10  5.0000E-10  2.0000E-10  2.0000E-10  1.0000E-10  1.0000E-10  1.0000E-10  1.0000E-10  5.0000E-10
   7   8.0000E-10  5.0000E-10  5.0000E-10  2.0000E-10  2.0000E-10  1.0000E-10  1.0000E-10  2.0000E-10  2.0000E-10   0.000    
   8    0.000      5.0000E-10  5.0000E-10  2.0000E-10  2.0000E-10  1.0000E-10  1.0000E-10  2.0000E-10  5.0000E-10   0.000    
   9    0.000      5.0000E-10  5.0000E-10  2.0000E-10  2.0000E-10  1.0000E-10  1.0000E-10  2.0000E-10  5.0000E-10   0.000    
  10    0.000      5.0000E-10  5.0000E-10  2.0000E-10  2.0000E-10  1.0000E-10  1.0000E-10  2.0000E-10  5.0000E-10  8.0000E-10
  11    0.000      1.0000E-10  1.0000E-10  1.0000E-10  1.0000E-10  1.0000E-10  1.0000E-10  2.0000E-10  5.0000E-10   0.000    
  12   1.0000E-10  1.0000E-10  1.0000E-10  1.0000E-10  1.0000E-10  1.0000E-10  1.0000E-10  1.0000E-10  2.0000E-10   0.000    
  13   1.0000E-10  1.0000E-10  2.0000E-10  2.0000E-10  2.0000E-10  2.0000E-10  2.0000E-10  1.0000E-10  1.0000E-10   0.000    
  14    0.000      2.0000E-10  5.0000E-10  5.0000E-10  5.0000E-10  5.0000E-10  5.0000E-10  2.0000E-10  1.0000E-10   0.000    
  15    0.000       0.000      8.0000E-10  8.0000E-10  8.0000E-10  8.0000E-10   0.000       0.000       0.000       0.000    

                  ET RATE =  1.500000E-07

 USING ET EXTINCTION DEPTH FROM PREVIOUS STRESS PERIOD. CURRENT PERIOD IS:      43

 USING EXTINCTION WATER CONTENT FROM PREVIOUS STRESS PERIOD. CURRENT PERIOD IS:      43

 USING AIR ENTRY PRESSURE FROM PREVIOUS STRESS PERIOD. CURRENT PERIOD IS:      43

 USING ROOT PRESSURE HEAD FROM PREVIOUS STRESS PERIOD. CURRENT PERIOD IS:      43

 USING ROOT ACTIVITY FROM PREVIOUS STRESS PERIOD. CURRENT PERIOD IS:      43

 PROCESSING AG STRESS PERIOD DATA

 READING AG STRESS PERIOD DATA

 READING IRRIGATION WELL

 END PROCESSING AG STRESS PERIOD DATA OPTIONS
 
 SOLVING FOR HEAD 
                                                   Max.-Head-Change                         Max.-Flux-Residual
  Residual-Control   Outer-Iter.   Inner-Iter.     Column Row Layer    Maximum-Head-Change  Column Row Layer    Maximum-Flux-Residual          L2-NORM 
          0                 1           2             4    7     1      -0.5674449998E-01       4    7    1        -0.2966772075E+01      0.7038181368E+01
          0                 2           2             4    7     1       0.5519662055E-02       4    7    1         0.2966753188E+00      0.7038107220E+00
          0                 3           2             4    7     1      -0.3758687775E-03       4    7    1        -0.2076729689E-01      0.4926683163E-01
          0                 4           1             4    7     1       0.1495616923E-04       4    7    1         0.8493835542E-03      0.2015015437E-02

    ------------------------------------------------
       NWT REQUIRED            4 OUTER ITERATIONS 
       AND A TOTAL OF          7 INNER ITERATIONS.
    ------------------------------------------------

 NO OUTPUT CONTROL FOR STRESS PERIOD   43   TIME STEP    1
 
 SOLVING FOR HEAD 
                                                   Max.-Head-Change                         Max.-Flux-Residual
  Residual-Control   Outer-Iter.   Inner-Iter.     Column Row Layer    Maximum-Head-Change  Column Row Layer    Maximum-Flux-Residual          L2-NORM 
          0                 1           2             4    7     1      -0.5637043003E-01       4    7    1        -0.2948348840E+01      0.6914271664E+01
          0                 2           2             4    7     1       0.5483272897E-02       4    7    1         0.2948328321E+00      0.6914199874E+00
          0                 3           2             4    7     1      -0.3733908337E-03       4    7    1        -0.2063832431E-01      0.4839947653E-01
          0                 4           1             4    7     1       0.1485756946E-04       4    7    1         0.8441085604E-03      0.1979541243E-02

    ------------------------------------------------
       NWT REQUIRED            4 OUTER ITERATIONS 
       AND A TOTAL OF          7 INNER ITERATIONS.
    ------------------------------------------------

 NO OUTPUT CONTROL FOR STRESS PERIOD   43   TIME STEP    2
 
 SOLVING FOR HEAD 
                                                   Max.-Head-Change                         Max.-Flux-Residual
  Residual-Control   Outer-Iter.   Inner-Iter.     Column Row Layer    Maximum-Head-Change  Column Row Layer    Maximum-Flux-Residual          L2-NORM 
          0                 1           2             4    7     1      -0.5597877569E-01       4    7    1        -0.2928916360E+01      0.6796205376E+01
          0                 2           2             4    7     1       0.5445173530E-02       4    7    1         0.2928894392E+00      0.6796135863E+00
          0                 3           2             4    7     1      -0.3707964286E-03       4    7    1        -0.2050228813E-01      0.4757302758E-01
          0                 4           1             4    7     1       0.1475433581E-04       4    7    1         0.8385446754E-03      0.1945738504E-02

    ------------------------------------------------
       NWT REQUIRED            4 OUTER ITERATIONS 
       AND A TOTAL OF          7 INNER ITERATIONS.
    ------------------------------------------------

 NO OUTPUT CONTROL FOR STRESS PERIOD   43   TIME STEP    3
 
 SOLVING FOR HEAD 
                                                   Max.-Head-Change                         Max.-Flux-Residual
  Residual-Control   Outer-Iter.   Inner-Iter.     Column Row Layer    Maximum-Head-Change  Column Row Layer    Maximum-Flux-Residual          L2-NORM 
          0                 1           2             4    7     1      -0.5557104112E-01       4    7    1        -0.2908557505E+01      0.6683556863E+01
          0                 2           2             4    7     1       0.5405510247E-02       4    7    1         0.2908534262E+00      0.6683489510E+00
          0                 3           2             4    7     1      -0.3680955238E-03       4    7    1        -0.2035976836E-01      0.4678450241E-01
          0                 4           1             4    7     1       0.1464686362E-04       4    7    1         0.8327155920E-03      0.1913491975E-02

    ------------------------------------------------
       NWT REQUIRED            4 OUTER ITERATIONS 
       AND A TOTAL OF          7 INNER ITERATIONS.
    ------------------------------------------------

 NO OUTPUT CONTROL FOR STRESS PERIOD   43   TIME STEP    4
 
 SOLVING FOR HEAD 
                                                   Max.-Head-Change                         Max.-Flux-Residual
  Residual-Control   Outer-Iter.   Inner-Iter.     Column Row Layer    Maximum-Head-Change  Column Row Layer    Maximum-Flux-Residual          L2-NORM 
          0                 1           2             4    7     1      -0.5514916979E-01       4    7    1        -0.2887379539E+01      0.6575938459E+01
          0                 2           2             4    7     1       0.5364472075E-02       4    7    1         0.2887355177E+00      0.6575873151E+00
          0                 3           2             4    7     1      -0.3653009921E-03       4    7    1        -0.2021151576E-01      0.4603118219E-01
          0                 4           1             4    7     1       0.1453566682E-04       4    7    1         0.8266520495E-03      0.1882676731E-02

    ------------------------------------------------
       NWT REQUIRED            4 OUTER ITERATIONS 
       AND A TOTAL OF          7 INNER ITERATIONS.
    ------------------------------------------------

 NO OUTPUT CONTROL FOR STRESS PERIOD   43   TIME STEP    5
 
 SOLVING FOR HEAD 
                                                   Max.-Head-Change                         Max.-Flux-Residual
  Residual-Control   Outer-Iter.   Inner-Iter.     Column Row Layer    Maximum-Head-Change  Column Row Layer    Maximum-Flux-Residual          L2-NORM 
          0                 1           2             4    7     1      -0.5471445669E-01       4    7    1        -0.2865453962E+01      0.6473003673E+01
          0                 2           2             4    7     1       0.5322194967E-02       4    7    1         0.2865428627E+00      0.6478219834E+00
          0                 3           2             4    7     1      -0.3624220827E-03       4    7    1        -0.2005803077E-01      0.4534758287E-01
          0                 4           1             4    7     1       0.1442111256E-04       4    7    1         0.8203745056E-03      0.1854718734E-02

    ------------------------------------------------
       NWT REQUIRED            4 OUTER ITERATIONS 
       AND A TOTAL OF          7 INNER ITERATIONS.
    ------------------------------------------------

 NO OUTPUT CONTROL FOR STRESS PERIOD   43   TIME STEP    6
 
 SOLVING FOR HEAD 
                                                   Max.-Head-Change                         Max.-Flux-Residual
  Residual-Control   Outer-Iter.   Inner-Iter.     Column Row Layer    Maximum-Head-Change  Column Row Layer    Maximum-Flux-Residual          L2-NORM 
          0                 1           2             4    7     1      -0.5426847338E-01       4    7    1        -0.2842869335E+01      0.6374026415E+01
          0                 2           2             4    7     1       0.5278802600E-02       4    7    1         0.2842843161E+00      0.6373991211E+00
          0                 3           2             4    7     1      -0.3594672353E-03       4    7    1        -0.1989993322E-01      0.4461797948E-01
          0                 4           1             4    7     1       0.1430353619E-04       4    7    1         0.8139083006E-03      0.1824877349E-02

    ------------------------------------------------
       NWT REQUIRED            4 OUTER ITERATIONS 
       AND A TOTAL OF          7 INNER ITERATIONS.
    ------------------------------------------------

 NO OUTPUT CONTROL FOR STRESS PERIOD   43   TIME STEP    7
 
 SOLVING FOR HEAD 
                                                   Max.-Head-Change                         Max.-Flux-Residual
  Residual-Control   Outer-Iter.   Inner-Iter.     Column Row Layer    Maximum-Head-Change  Column Row Layer    Maximum-Flux-Residual          L2-NORM 
          0                 1           2             4    7     1      -0.5381261332E-01       4    7    1        -0.2819701383E+01      0.6278860433E+01
          0                 2           2             4    7     1       0.5234458795E-02       4    7    1         0.2819674493E+00      0.6278825067E+00
          0                 3           2             4    7     1      -0.3564475969E-03       4    7    1        -0.1973775317E-01      0.4395181672E-01
          0                 4           1             4    7     1       0.1418338177E-04       4    7    1         0.8072751191E-03      0.1797631750E-02

    ------------------------------------------------
       NWT REQUIRED            4 OUTER ITERATIONS 
       AND A TOTAL OF          7 INNER ITERATIONS.
    ------------------------------------------------

 NO OUTPUT CONTROL FOR STRESS PERIOD   43   TIME STEP    8
 
 SOLVING FOR HEAD 
                                                   Max.-Head-Change                         Max.-Flux-Residual
  Residual-Control   Outer-Iter.   Inner-Iter.     Column Row Layer    Maximum-Head-Change  Column Row Layer    Maximum-Flux-Residual          L2-NORM 
          0                 1           2             4    7     1      -0.5334788509E-01       4    7    1        -0.2796006223E+01      0.6187587362E+01
          0                 2           2             4    7     1       0.5189252528E-02       4    7    1         0.2795978730E+00      0.6187551909E+00
          0                 3           2             4    7     1      -0.3533692265E-03       4    7    1        -0.1957188333E-01      0.4331290524E-01
          0                 4           1             4    7     1       0.1406089038E-04       4    7    1         0.8004910342E-03      0.1771500088E-02

    ------------------------------------------------
       NWT REQUIRED            4 OUTER ITERATIONS 
       AND A TOTAL OF          7 INNER ITERATIONS.
    ------------------------------------------------

 NO OUTPUT CONTROL FOR STRESS PERIOD   43   TIME STEP    9
 
 SOLVING FOR HEAD 
                                                   Max.-Head-Change                         Max.-Flux-Residual
  Residual-Control   Outer-Iter.   Inner-Iter.     Column Row Layer    Maximum-Head-Change  Column Row Layer    Maximum-Flux-Residual          L2-NORM 
          0                 1           2             4    7     1      -0.5287577049E-01       4    7    1        -0.2771865888E+01      0.6099952591E+01
          0                 2           2             4    7     1       0.5143327924E-02       4    7    1         0.2771837897E+00      0.6099917168E+00
          0                 3           2             4    7     1      -0.3502419378E-03       4    7    1        -0.1940289787E-01      0.4269946286E-01
          0                 4           1             4    7     1       0.1393645264E-04       4    7    1         0.7935795109E-03      0.1746411099E-02

    ------------------------------------------------
       NWT REQUIRED            4 OUTER ITERATIONS 
       AND A TOTAL OF          7 INNER ITERATIONS.
    ------------------------------------------------

 NO OUTPUT CONTROL FOR STRESS PERIOD   43   TIME STEP   10
 
 SOLVING FOR HEAD 
                                                   Max.-Head-Change                         Max.-Flux-Residual
  Residual-Control   Outer-Iter.   Inner-Iter.     Column Row Layer    Maximum-Head-Change  Column Row Layer    Maximum-Flux-Residual          L2-NORM 
          0                 1           2             4    7     1      -0.5239711869E-01       4    7    1        -0.2747327961E+01      0.6015716112E+01
          0                 2           2             4    7     1       0.5096767570E-02       4    7    1         0.2747299566E+00      0.6015680762E+00
          0                 3           2             4    7     1      -0.3470713566E-03       4    7    1        -0.1923112989E-01      0.4210980610E-01
          0                 4           1             4    7     1       0.1381029237E-04       4    7    1         0.7865541970E-03      0.1722307395E-02

    ------------------------------------------------
       NWT REQUIRED            4 OUTER ITERATIONS 
       AND A TOTAL OF          7 INNER ITERATIONS.
    ------------------------------------------------

 NO OUTPUT CONTROL FOR STRESS PERIOD   43   TIME STEP   11
 
 SOLVING FOR HEAD 
                                                   Max.-Head-Change                         Max.-Flux-Residual
  Residual-Control   Outer-Iter.   Inner-Iter.     Column Row Layer    Maximum-Head-Change  Column Row Layer    Maximum-Flux-Residual          L2-NORM 
          0                 1           2             4    7     1      -0.5191326147E-01       4    7    1        -0.2722465717E+01      0.5934691420E+01
          0                 2           2             4    7     1       0.5049700999E-02       4    7    1         0.2722437006E+00      0.5934656242E+00
          0                 3           2             4    7     1      -0.3438663020E-03       4    7    1        -0.1905709219E-01      0.4154263567E-01
          0                 4           1             4    7     1       0.1368276034E-04       4    7    1         0.7794360465E-03      0.1699095426E-02

    ------------------------------------------------
       NWT REQUIRED            4 OUTER ITERATIONS 
       AND A TOTAL OF          7 INNER ITERATIONS.
    ------------------------------------------------

 NO OUTPUT CONTROL FOR STRESS PERIOD   43   TIME STEP   12
 
 SOLVING FOR HEAD 
                                                   Max.-Head-Change                         Max.-Flux-Residual
  Residual-Control   Outer-Iter.   Inner-Iter.     Column Row Layer    Maximum-Head-Change  Column Row Layer    Maximum-Flux-Residual          L2-NORM 
          0                 1           2             4    7     1      -0.5142490160E-01       4    7    1        -0.2697318964E+01      0.5856659723E+01
          0                 2           2             4    7     1       0.5002196562E-02       4    7    1         0.2697290018E+00      0.5856624760E+00
          0                 3           2             4    7     1      -0.3406314291E-03       4    7    1        -0.1888106341E-01      0.4099649186E-01
          0                 4           1             4    7     1       0.1355404158E-04       4    7    1         0.7722364503E-03      0.1676758916E-02

    ------------------------------------------------
       NWT REQUIRED            4 OUTER ITERATIONS 
       AND A TOTAL OF          7 INNER ITERATIONS.
    ------------------------------------------------

 NO OUTPUT CONTROL FOR STRESS PERIOD   43   TIME STEP   13
 
 SOLVING FOR HEAD 
                                                   Max.-Head-Change                         Max.-Flux-Residual
  Residual-Control   Outer-Iter.   Inner-Iter.     Column Row Layer    Maximum-Head-Change  Column Row Layer    Maximum-Flux-Residual          L2-NORM 
          0                 1           2             4    7     1      -0.5093309202E-01       4    7    1        -0.2671946074E+01      0.5781452941E+01
          0                 2           2             4    7     1       0.4954356668E-02       4    7    1         0.2671916964E+00      0.5781420042E+00
          0                 3           2             4    7     1      -0.3373737119E-03       4    7    1        -0.1870345211E-01      0.4047483522E-01
          0                 4           1             4    7     1       0.1342441435E-04       4    7    1         0.7649721429E-03      0.1655783975E-02

    ------------------------------------------------
       NWT REQUIRED            4 OUTER ITERATIONS 
       AND A TOTAL OF          7 INNER ITERATIONS.
    ------------------------------------------------

 NO OUTPUT CONTROL FOR STRESS PERIOD   43   TIME STEP   14
 
 SOLVING FOR HEAD 
                                                   Max.-Head-Change                         Max.-Flux-Residual
  Residual-Control   Outer-Iter.   Inner-Iter.     Column Row Layer    Maximum-Head-Change  Column Row Layer    Maximum-Flux-Residual          L2-NORM 
          0                 1           2             4    7     1      -0.5043868053E-01       4    7    1        -0.2646394329E+01      0.5708917692E+01
          0                 2           2             4    7     1       0.4906263779E-02       4    7    1         0.2646365123E+00      0.5708883295E+00
          0                 3           2             4    7     1      -0.3340987660E-03       4    7    1        -0.1852458925E-01      0.3996222348E-01
          0                 4           1             4    7     1       0.1329410085E-04       4    7    1         0.7576566429E-03      0.1634458295E-02

    ------------------------------------------------
       NWT REQUIRED            4 OUTER ITERATIONS 
       AND A TOTAL OF          7 INNER ITERATIONS.
    ------------------------------------------------

 NO OUTPUT CONTROL FOR STRESS PERIOD   43   TIME STEP   15
 
 SOLVING FOR HEAD 
                                                   Max.-Head-Change                         Max.-Flux-Residual
  Residual-Control   Outer-Iter.   Inner-Iter.     Column Row Layer    Maximum-Head-Change  Column Row Layer    Maximum-Flux-Residual          L2-NORM 
          0                 1           2             4    7     1      -0.4994231446E-01       4    7    1        -0.2620700382E+01      0.5638881124E+01
          0                 2           2             4    7     1       0.4857980850E-02       4    7    1         0.2620671138E+00      0.5638847111E+00
          0                 3           2             4    7     1      -0.3308108776E-03       4    7    1        -0.1834473131E-01      0.3947196955E-01
          0                 4           1             4    7     1       0.1316327237E-04       4    7    1         0.7503004249E-03      0.1614404316E-02

    ------------------------------------------------
       NWT REQUIRED            4 OUTER ITERATIONS 
       AND A TOTAL OF          7 INNER ITERATIONS.
    ------------------------------------------------

 NO OUTPUT CONTROL FOR STRESS PERIOD   43   TIME STEP   16
 
 SOLVING FOR HEAD 
                                                   Max.-Head-Change                         Max.-Flux-Residual
  Residual-Control   Outer-Iter.   Inner-Iter.     Column Row Layer    Maximum-Head-Change  Column Row Layer    Maximum-Flux-Residual          L2-NORM 
          0                 1           2             4    7     1      -0.4944486570E-01       4    7    1        -0.2594912412E+01      0.5571227035E+01
          0                 2           2             4    7     1       0.4809592685E-02       4    7    1         0.2594883186E+00      0.5571193358E+00
          0                 3           2             4    7     1      -0.3275158230E-03       4    7    1        -0.1816421556E-01      0.3899839243E-01
          0                 4           1             4    7     1       0.1303215954E-04       4    7    1         0.7429173290E-03      0.1595036114E-02

    ------------------------------------------------
       NWT REQUIRED            4 OUTER ITERATIONS 
       AND A TOTAL OF          7 INNER ITERATIONS.
    ------------------------------------------------

 NO OUTPUT CONTROL FOR STRESS PERIOD   43   TIME STEP   17
 
 SOLVING FOR HEAD 
                                                   Max.-Head-Change                         Max.-Flux-Residual
  Residual-Control   Outer-Iter.   Inner-Iter.     Column Row Layer    Maximum-Head-Change  Column Row Layer    Maximum-Flux-Residual          L2-NORM 
          0                 1           2             4    7     1      -0.4894686871E-01       4    7    1        -0.2569061012E+01      0.5505814219E+01
          0                 2           2             4    7     1       0.4761151264E-02       4    7    1         0.2569031851E+00      0.5505780934E+00
          0                 3           2             4    7     1      -0.3242171406E-03       4    7    1        -0.1798325607E-01      0.3854050475E-01
          0                 4           1             4    7     1       0.1290090175E-04       4    7    1         0.7355160749E-03      0.1576309414E-02

    ------------------------------------------------
       NWT REQUIRED            4 OUTER ITERATIONS 
       AND A TOTAL OF          7 INNER ITERATIONS.
    ------------------------------------------------

 NO OUTPUT CONTROL FOR STRESS PERIOD   43   TIME STEP   18
 
 SOLVING FOR HEAD 
                                                   Max.-Head-Change                         Max.-Flux-Residual
  Residual-Control   Outer-Iter.   Inner-Iter.     Column Row Layer    Maximum-Head-Change  Column Row Layer    Maximum-Flux-Residual          L2-NORM 
          0                 1           2             4    7     1      -0.4844908512E-01       4    7    1        -0.2543188506E+01      0.5442532803E+01
          0                 2           2             4    7     1       0.4712730665E-02       4    7    1         0.2543159454E+00      0.5442499915E+00
          0                 3           2             4    7     1      -0.3209198759E-03       4    7    1        -0.1780214911E-01      0.3809754966E-01
          0                 4           1             4    7     1       0.1276970073E-04       4    7    1         0.7281088019E-03      0.1558396363E-02

    ------------------------------------------------
       NWT REQUIRED            4 OUTER ITERATIONS 
       AND A TOTAL OF          7 INNER ITERATIONS.
    ------------------------------------------------

 NO OUTPUT CONTROL FOR STRESS PERIOD   43   TIME STEP   19
 
 SOLVING FOR HEAD 
                                                   Max.-Head-Change                         Max.-Flux-Residual
  Residual-Control   Outer-Iter.   Inner-Iter.     Column Row Layer    Maximum-Head-Change  Column Row Layer    Maximum-Flux-Residual          L2-NORM 
          0                 1           2             4    7     1      -0.4795208181E-01       4    7    1        -0.2517327077E+01      0.5381268638E+01
          0                 2           2             4    7     1       0.4664386024E-02       4    7    1         0.2517298175E+00      0.5381236194E+00
          0                 3           2             4    7     1      -0.3176277824E-03       4    7    1        -0.1762111992E-01      0.3766869134E-01
          0                 4           1             4    7     1       0.1263870474E-04       4    7    1         0.7207046833E-03      0.1540651771E-02

    ------------------------------------------------
       NWT REQUIRED            4 OUTER ITERATIONS 
       AND A TOTAL OF          7 INNER ITERATIONS.
    ------------------------------------------------

 NO OUTPUT CONTROL FOR STRESS PERIOD   43   TIME STEP   20
 
 SOLVING FOR HEAD 
                                                   Max.-Head-Change                         Max.-Flux-Residual
  Residual-Control   Outer-Iter.   Inner-Iter.     Column Row Layer    Maximum-Head-Change  Column Row Layer    Maximum-Flux-Residual          L2-NORM 
          0                 1           2             4    7     1      -0.4745625069E-01       4    7    1        -0.2491498814E+01      0.5321921053E+01
          0                 2           2             4    7     1       0.4616155457E-02       4    7    1         0.2491470097E+00      0.5321889070E+00
          0                 3           2             4    7     1      -0.3143434568E-03       4    7    1        -0.1744032312E-01      0.3725326040E-01
          0                 4           1             4    7     1       0.1250801857E-04       4    7    1         0.7133100889E-03      0.1523661141E-02

    ------------------------------------------------
       NWT REQUIRED            4 OUTER ITERATIONS 
       AND A TOTAL OF          7 INNER ITERATIONS.
    ------------------------------------------------

 NO OUTPUT CONTROL FOR STRESS PERIOD   43   TIME STEP   21
 
 SOLVING FOR HEAD 
                                                   Max.-Head-Change                         Max.-Flux-Residual
  Residual-Control   Outer-Iter.   Inner-Iter.     Column Row Layer    Maximum-Head-Change  Column Row Layer    Maximum-Flux-Residual          L2-NORM 
          0                 1           2             4    7     1      -0.4696220994E-01       4    7    1        -0.2465738647E+01      0.5264391646E+01
          0                 2           2             4    7     1       0.4568099091E-02       4    7    1         0.2465710145E+00      0.5264360119E+00
          0                 3           2             4    7     1      -0.3110709940E-03       4    7    1        -0.1726000321E-01      0.3685055752E-01
          0                 4           1             4    7     1       0.1237780453E-04       4    7    1         0.7059350091E-03      0.1507190336E-02

    ------------------------------------------------
       NWT REQUIRED            4 OUTER ITERATIONS 
       AND A TOTAL OF          7 INNER ITERATIONS.
    ------------------------------------------------

 NO OUTPUT CONTROL FOR STRESS PERIOD   43   TIME STEP   22
 
 SOLVING FOR HEAD 
                                                   Max.-Head-Change                         Max.-Flux-Residual
  Residual-Control   Outer-Iter.   Inner-Iter.     Column Row Layer    Maximum-Head-Change  Column Row Layer    Maximum-Flux-Residual          L2-NORM 
          0                 1           2             4    7     1      -0.4647026605E-01       4    7    1        -0.2440064021E+01      0.5208601764E+01
          0                 2           2             4    7     1       0.4520246732E-02       4    7    1         0.2440035763E+00      0.5208570705E+00
          0                 3           2             4    7     1      -0.3078124215E-03       4    7    1        -0.1708028219E-01      0.3646002964E-01
          0                 4           1             4    7     1       0.1224814265E-04       4    7    1         0.6985844022E-03      0.1491217138E-02

    ------------------------------------------------
       NWT REQUIRED            4 OUTER ITERATIONS 
       AND A TOTAL OF          7 INNER ITERATIONS.
    ------------------------------------------------

 NO OUTPUT CONTROL FOR STRESS PERIOD   43   TIME STEP   23
 
 SOLVING FOR HEAD 
                                                   Max.-Head-Change                         Max.-Flux-Residual
  Residual-Control   Outer-Iter.   Inner-Iter.     Column Row Layer    Maximum-Head-Change  Column Row Layer    Maximum-Flux-Residual          L2-NORM 
          0                 1           2             4    7     1      -0.4598095631E-01       4    7    1        -0.2414505431E+01      0.5154457774E+01
          0                 2           2             4    7     1       0.4472650640E-02       4    7    1         0.2414477441E+00      0.5154427149E+00
          0                 3           2             4    7     1      -0.3045713003E-03       4    7    1        -0.1690137361E-01      0.3608102124E-01
          0                 4           1             4    7     1       0.1211917545E-04       4    7    1         0.6912670351E-03      0.1475713975E-02

    ------------------------------------------------
       NWT REQUIRED            4 OUTER ITERATIONS 
       AND A TOTAL OF          7 INNER ITERATIONS.
    ------------------------------------------------

 NO OUTPUT CONTROL FOR STRESS PERIOD   43   TIME STEP   24
 
 SOLVING FOR HEAD 
                                                   Max.-Head-Change                         Max.-Flux-Residual
  Residual-Control   Outer-Iter.   Inner-Iter.     Column Row Layer    Maximum-Head-Change  Column Row Layer    Maximum-Flux-Residual          L2-NORM 
          0                 1           2             4    7     1      -0.4549464577E-01       4    7    1        -0.2389083433E+01      0.5101893710E+01
          0                 2           2             4    7     1       0.4425346320E-02       4    7    1         0.2389055733E+00      0.5101863572E+00
          0                 3           2             4    7     1      -0.3013500472E-03       4    7    1        -0.1672342131E-01      0.3571307950E-01
          0                 4           1             4    7     1       0.1199099859E-04       4    7    1         0.6839887735E-03      0.1460666410E-02

    ------------------------------------------------
       NWT REQUIRED            4 OUTER ITERATIONS 
       AND A TOTAL OF          7 INNER ITERATIONS.
    ------------------------------------------------

 NO OUTPUT CONTROL FOR STRESS PERIOD   43   TIME STEP   25
 
 SOLVING FOR HEAD 
                                                   Max.-Head-Change                         Max.-Flux-Residual
  Residual-Control   Outer-Iter.   Inner-Iter.     Column Row Layer    Maximum-Head-Change  Column Row Layer    Maximum-Flux-Residual          L2-NORM 
          0                 1           2             4    7     1      -0.4501166524E-01       4    7    1        -0.2363816957E+01      0.5050840605E+01
          0                 2           2             4    7     1       0.4378365947E-02       4    7    1         0.2363789565E+00      0.5050810963E+00
          0                 3           2             4    7     1      -0.2981508536E-03       4    7    1        -0.1654655777E-01      0.3535571045E-01
          0                 4           1             4    7     1       0.1186369993E-04       4    7    1         0.6767550497E-03      0.1446050307E-02

    ------------------------------------------------
       NWT REQUIRED            4 OUTER ITERATIONS 
       AND A TOTAL OF          7 INNER ITERATIONS.
    ------------------------------------------------

 NO OUTPUT CONTROL FOR STRESS PERIOD   43   TIME STEP   26
 
 SOLVING FOR HEAD 
                                                   Max.-Head-Change                         Max.-Flux-Residual
  Residual-Control   Outer-Iter.   Inner-Iter.     Column Row Layer    Maximum-Head-Change  Column Row Layer    Maximum-Flux-Residual          L2-NORM 
          0                 1           2             4    7     1      -0.4453217763E-01       4    7    1        -0.2338715852E+01      0.5001223054E+01
          0                 2           2             4    7     1       0.4331725363E-02       4    7    1         0.2338688785E+00      0.5001193875E+00
          0                 3           2             4    7     1      -0.2949747979E-03       4    7    1        -0.1637085192E-01      0.3500839077E-01
          0                 4           1             4    7     1       0.1173732183E-04       4    7    1         0.6695686766E-03      0.1431845323E-02

    ------------------------------------------------
       NWT REQUIRED            4 OUTER ITERATIONS 
       AND A TOTAL OF          7 INNER ITERATIONS.
    ------------------------------------------------

 NO OUTPUT CONTROL FOR STRESS PERIOD   43   TIME STEP   27
 
 SOLVING FOR HEAD 
                                                   Max.-Head-Change                         Max.-Flux-Residual
  Residual-Control   Outer-Iter.   Inner-Iter.     Column Row Layer    Maximum-Head-Change  Column Row Layer    Maximum-Flux-Residual          L2-NORM 
          0                 1           2             4    7     1      -0.4405672586E-01       4    7    1        -0.2313810466E+01      0.4952985487E+01
          0                 2           2             4    7     1       0.4285477376E-02       4    7    1         0.2313783737E+00      0.4952956768E+00
          0                 3           2             4    7     1      -0.2918254764E-03       4    7    1        -0.1619651620E-01      0.3467072717E-01
          0                 4           1             4    7     1       0.1161200740E-04       4    7    1         0.6624383227E-03      0.1418035685E-02

    ------------------------------------------------
       NWT REQUIRED            4 OUTER ITERATIONS 
       AND A TOTAL OF          7 INNER ITERATIONS.
    ------------------------------------------------

 NO OUTPUT CONTROL FOR STRESS PERIOD   43   TIME STEP   28
 
 SOLVING FOR HEAD 
                                                   Max.-Head-Change                         Max.-Flux-Residual
  Residual-Control   Outer-Iter.   Inner-Iter.     Column Row Layer    Maximum-Head-Change  Column Row Layer    Maximum-Flux-Residual          L2-NORM 
          0                 1           2             4    7     1      -0.4358527512E-01       4    7    1        -0.2289099752E+01      0.4906059378E+01
          0                 2           2             4    7     1       0.4239618598E-02       4    7    1         0.2289073373E+00      0.4906031160E+00
          0                 3           2             4    7     1      -0.2887026584E-03       4    7    1        -0.1602354325E-01      0.3434225764E-01
          0                 4           1             4    7     1       0.1148774718E-04       4    7    1         0.6553637063E-03      0.1404606695E-02

    ------------------------------------------------
       NWT REQUIRED            4 OUTER ITERATIONS 
       AND A TOTAL OF          7 INNER ITERATIONS.
    ------------------------------------------------

 NO OUTPUT CONTROL FOR STRESS PERIOD   43   TIME STEP   29
 
 SOLVING FOR HEAD 
                                                   Max.-Head-Change                         Max.-Flux-Residual
  Residual-Control   Outer-Iter.   Inner-Iter.     Column Row Layer    Maximum-Head-Change  Column Row Layer    Maximum-Flux-Residual          L2-NORM 
          0                 1           2             4    7     1      -0.4311818092E-01       4    7    1        -0.2264603800E+01      0.4860403493E+01
          0                 2           2             4    7     1       0.4194183607E-02       4    7    1         0.2264577782E+00      0.4860375790E+00
          0                 3           2             4    7     1      -0.2856086986E-03       4    7    1        -0.1585207368E-01      0.3402266170E-01
          0                 4           1             4    7     1       0.1136463560E-04       4    7    1         0.6483506002E-03      0.1391529186E-02

    ------------------------------------------------
       NWT REQUIRED            4 OUTER ITERATIONS 
       AND A TOTAL OF          7 INNER ITERATIONS.
    ------------------------------------------------

 NO OUTPUT CONTROL FOR STRESS PERIOD   43   TIME STEP   30



 STREAM LISTING     PERIOD     43   STEP       30

 LAYER ROW COL. STREAM  RCH.  FLOW INTO     FLOW TO   FLOW OUT OF   OVRLND.     DIRECT     STREAM       STREAM     STREAM     STREAM   STREAMBED  STREAMBED
                SEG.NO.  NO.  STRM. RCH.    AQUIFER    STRM. RCH.    RUNOFF     PRECIP       ET          HEAD       DEPTH      WIDTH   CONDCTNC.   GRADIENT

   1    1    1     1     1    1.9000E+01  2.1427E-01   1.8786E+01  0.000E+00  0.000E+00  0.000E+00  1.09413E+03  1.082E+00  1.166E+01  5.249E-02  1.361E+00
   1    2    2     1     2    1.8786E+01  3.3054E-01   1.8455E+01  0.000E+00  0.000E+00  0.000E+00  1.08914E+03  1.077E+00  1.158E+01  8.107E-02  1.359E+00
   1    3    3     1     3    1.8455E+01  2.8064E-01   1.8175E+01  0.000E+00  0.000E+00  0.000E+00  1.08349E+03  1.072E+00  1.149E+01  6.892E-02  1.357E+00
   1    3    4     1     4    1.8175E+01  2.5740E-01   1.7917E+01  0.000E+00  0.000E+00  0.000E+00  1.07848E+03  1.068E+00  1.140E+01  6.328E-02  1.356E+00
   1    4    5     2     1    1.5917E+01  3.0542E-01   1.5612E+01  0.000E+00  0.000E+00  0.000E+00  1.07285E+03  9.157E-01  1.200E+01  7.800E-02  1.305E+00
   1    5    6     2     2    1.5612E+01  2.3438E-01   1.5377E+01  0.000E+00  0.000E+00  0.000E+00  1.06742E+03  9.063E-01  1.200E+01  6.000E-02  1.302E+00
   1    6    6     2     3    1.5377E+01  2.3388E-01   1.5143E+01  0.000E+00  0.000E+00  0.000E+00  1.06269E+03  8.980E-01  1.200E+01  6.000E-02  1.299E+00
   1    7    6     2     4    1.5143E+01  2.3338E-01   1.4910E+01  0.000E+00  0.000E+00  0.000E+00  1.05797E+03  8.897E-01  1.200E+01  6.000E-02  1.297E+00
   1    8    6     2     5    1.4910E+01  2.3289E-01   1.4677E+01  0.000E+00  0.000E+00  0.000E+00  1.05324E+03  8.814E-01  1.200E+01  6.000E-02  1.294E+00
   1    3    5     3     1    2.0000E+00  2.8252E-01   1.7175E+00  0.000E+00  0.000E+00  0.000E+00  1.07555E+03  1.909E+00  9.636E+00  7.227E-02  1.955E+00
   1    3    6     3     2    1.7175E+00  2.4905E-01   1.4684E+00  0.000E+00  0.000E+00  0.000E+00  1.07264E+03  1.727E+00  8.909E+00  6.682E-02  1.864E+00
   1    3    7     3     3    1.4684E+00  1.9718E-01   1.2712E+00  0.000E+00  0.000E+00  0.000E+00  1.06987E+03  1.555E+00  8.218E+00  5.547E-02  1.777E+00
   1    4    8     3     4    1.2712E+00  2.2567E-01   1.0456E+00  0.000E+00  0.000E+00  0.000E+00  1.06682E+03  1.364E+00  7.455E+00  6.709E-02  1.682E+00
   1    5    8     3     5    1.0456E+00  1.5790E-01   8.8768E-01  0.000E+00  0.000E+00  0.000E+00  1.06362E+03  1.164E+00  6.655E+00  4.991E-02  1.582E+00
   1    6    8     3     6    8.8768E-01  5.5980E-02   8.3170E-01  0.000E+00  0.000E+00  0.000E+00  1.06158E+03  1.036E+00  6.145E+00  1.844E-02  1.518E+00
   1    5   10     4     1    1.0000E+01  9.0919E-02   9.9091E+00  0.000E+00  0.000E+00  0.000E+00  1.07836E+03  6.368E-01  1.000E+01  2.500E-02  1.212E+00
   1    5    9     4     2    9.9091E+00  1.8158E-01   9.7275E+00  0.000E+00  0.000E+00  0.000E+00  1.07154E+03  6.315E-01  1.000E+01  5.000E-02  1.211E+00
   1    6    8     4     3    9.7275E+00  1.2689E-01   9.6006E+00  0.000E+00  0.000E+00  0.000E+00  1.06381E+03  6.256E-01  1.000E+01  3.500E-02  1.209E+00
   1    6    8     5     1    1.0432E+01  2.2686E-01   1.0205E+01  0.000E+00  0.000E+00  0.000E+00  1.05868E+03  6.790E-01  1.542E+01  6.166E-02  1.226E+00
   1    7    7     5     2    1.0205E+01  2.7894E-01   9.9265E+00  0.000E+00  0.000E+00  0.000E+00  1.05417E+03  6.732E-01  1.519E+01  7.594E-02  1.224E+00
   1    8    7     5     3    9.9265E+00  1.9221E-01   9.7343E+00  0.000E+00  0.000E+00  0.000E+00  1.04992E+03  6.676E-01  1.497E+01  5.241E-02  1.223E+00
   1    8    6     5     4    9.7343E+00  1.3577E-01   9.5985E+00  0.000E+00  0.000E+00  0.000E+00  1.04691E+03  6.637E-01  1.482E+01  3.706E-02  1.221E+00
   1    9    6     6     1    2.4276E+01  2.5176E-01   2.4024E+01  0.000E+00  0.000E+00  0.000E+00  1.04392E+03  1.196E+00  1.200E+01  6.000E-02  1.399E+00
   1   10    7     6     2    2.4024E+01  2.5131E-01   2.3773E+01  0.000E+00  0.000E+00  0.000E+00  1.03937E+03  1.188E+00  1.200E+01  6.000E-02  1.396E+00
   1   11    7     6     3    2.3773E+01  2.5086E-01   2.3522E+01  0.000E+00  0.000E+00  0.000E+00  1.03482E+03  1.181E+00  1.200E+01  6.000E-02  1.394E+00
   1   12    7     6     4    2.3522E+01  2.5041E-01   2.3271E+01  0.000E+00  0.000E+00  0.000E+00  1.03026E+03  1.173E+00  1.200E+01  6.000E-02  1.391E+00
   1   13    7     6     5    2.3271E+01  1.1392E-02   2.3260E+01  0.000E+00  0.000E+00  0.000E+00  1.02708E+03  1.169E+00  1.200E+01  2.400E-02  1.582E-01
   1   14    9     7     1    1.5000E+02  1.3724E+00   1.4863E+02  0.000E+00  0.000E+00  0.000E+00  1.03987E+03  2.288E+00  5.529E+01  5.593E-01  8.179E-01
   1   13    8     7     2    1.4863E+02  1.9766E+00   1.4665E+02  0.000E+00  0.000E+00  0.000E+00  1.03478E+03  2.279E+00  5.525E+01  6.147E-01  1.072E+00
   1   13    7     7     3    1.4665E+02  1.7222E+00   1.4493E+02  0.000E+00  0.000E+00  0.000E+00  1.02969E+03  2.269E+00  5.521E+01  5.584E-01  1.028E+00
   1   13    6     8     1    1.6819E+02  1.1542E+00   1.6703E+02  0.000E+00  0.000E+00  0.000E+00  1.02481E+03  2.937E+00  4.258E+01  4.339E-01  8.866E-01
   1   13    5     8     2    1.6703E+02  3.8783E-01   1.6665E+02  0.000E+00  0.000E+00  0.000E+00  1.01856E+03  2.932E+00  4.251E+01  4.332E-01  2.984E-01
   1   13    4     8     3    1.6665E+02 -1.7323E+00   1.6838E+02  0.000E+00  0.000E+00  0.000E+00  1.01231E+03  2.936E+00  4.257E+01  4.338E+00 -1.331E-01
   1   13    3     8     4    1.6838E+02 -3.2994E+00   1.7168E+02  0.000E+00  0.000E+00  0.000E+00  1.00608E+03  2.952E+00  4.281E+01  4.362E+00 -2.521E-01
   1   13    2     8     5    1.7168E+02 -2.4889E+00   1.7417E+02  0.000E+00  0.000E+00  0.000E+00  9.99846E+02  2.971E+00  4.308E+01  4.390E+00 -1.890E-01
   1   13    1     8     6    1.7417E+02 -1.9593E+00   1.7613E+02  0.000E+00  0.000E+00  0.000E+00  9.94860E+02  2.985E+00  4.329E+01  2.647E+00 -2.468E-01





UNSATURATED ZONE PACKAGE VOLUMETRIC BUDGET FOR  TIME STEP    30 STRESS PERIOD   43
  ------------------------------------------------------------------------------



     CUMULATIVE VOLUMES      L**3       RATES FOR THIS TIME STEP      L**3/T
     ------------------                 ------------------------

           IN:                                      IN:
           ---                                      ---
        INFILTRATION =  1611046987.7633          INFILTRATION =          23.3175

          OUT:                                     OUT:
          ----                                     ----
              UZF ET =  1393806977.5724                UZF ET =          23.3175
        UZF RECHARGE =   217165852.3464          UZF RECHARGE =       0.0000E+00

            IN - OUT =       74157.8444              IN - OUT =       0.0000E+00

          STORAGE:                                 STORAGE:
          --------                                 --------
      STORAGE CHANGE =       74176.1112        STORAGE CHANGE =       8.5443E-15

 PERCENT DISCREPANCY IS DIFFERENCE BETWEEN IN-OUT MINUS CHANGE IN STORAGE
 DIVIDED BY THE AVERAGE OF IN AND OUT TIMES 100

 PERCENT DISCREPANCY =           0.00     PERCENT DISCREPANCY =           0.00






1
  VOLUMETRIC BUDGET FOR AGRICULTURAL FIELDS AT  END OF TIME STEP   30, STRESS PERIOD  43
  ------------------------------------------------------------------------------

     CUMULATIVE VOLUMES      L**3       RATES FOR THIS TIME STEP      L**3/T
     ------------------                 ------------------------

           IN:                                      IN:
           ---                                      ---
               AG WELLS  =  1517359232.0000                 AG WELLS  =          22.4700
      DIVERSION SEGMENTS =           0.0000        DIVERSION SEGMENTS =           0.0000
           GW IRRIGATION =           0.0000             GW IRRIGATION =           0.0000
           SW IRRIGATION =           0.0000             SW IRRIGATION =           0.0000
        SYSTEM LOSSES GW =           0.0000          SYSTEM LOSSES GW =           0.0000
        SYSTEM LOSSES SW =           0.0000          SYSTEM LOSSES SW =           0.0000

                TOTAL IN =  1517359232.0000                  TOTAL IN =          22.4700

          OUT:                                     OUT:
          ----                                     ----
               AG WELLS  =           0.0000                 AG WELLS  =           0.0000
      DIVERSION SEGMENTS =           0.0000        DIVERSION SEGMENTS =           0.0000
           GW IRRIGATION =  1517359232.0000             GW IRRIGATION =          22.4700
           SW IRRIGATION =           0.0000             SW IRRIGATION =           0.0000
        SYSTEM LOSSES GW =           0.0000          SYSTEM LOSSES GW =           0.0000
        SYSTEM LOSSES SW =           0.0000          SYSTEM LOSSES SW =           0.0000

               TOTAL OUT =  1517359232.0000                 TOTAL OUT =          22.4700

                IN - OUT =           0.0000                  IN - OUT =           0.0000

     PERCENT DISCREPANCY =           0.00         PERCENT DISCREPANCY =           0.00



1
  VOLUMETRIC BUDGET FOR ENTIRE MODEL AT END OF TIME STEP   30, STRESS PERIOD  43
  ------------------------------------------------------------------------------

     CUMULATIVE VOLUMES      L**3       RATES FOR THIS TIME STEP      L**3/T
     ------------------                 ------------------------

           IN:                                      IN:
           ---                                      ---
             STORAGE     =  1960631424.0000               STORAGE     =          19.6420
       CONSTANT HEAD     =           0.0000         CONSTANT HEAD     =           0.0000
     HEAD DEP BOUNDS     =    31632422.0000       HEAD DEP BOUNDS     =           0.2883
      STREAM LEAKAGE     =  1355376640.0000        STREAM LEAKAGE     =          12.3531
        UZF RECHARGE     =   217165808.0000          UZF RECHARGE     =           0.0000
               GW ET     =           0.0000                 GW ET     =           0.0000
     SURFACE LEAKAGE     =           0.0000       SURFACE LEAKAGE     =           0.0000
           AG WELLS      =           0.0000             AG WELLS      =           0.0000

                TOTAL IN =  3564806144.0000                  TOTAL IN =          32.2834

          OUT:                                     OUT:
          ----                                     ----
             STORAGE     =   876969728.0000               STORAGE     =       4.4728E-02
       CONSTANT HEAD     =           0.0000         CONSTANT HEAD     =           0.0000
     HEAD DEP BOUNDS     =    32271356.0000       HEAD DEP BOUNDS     =           0.2888
      STREAM LEAKAGE     =  1120698368.0000        STREAM LEAKAGE     =           9.4799
        UZF RECHARGE     =           0.0000          UZF RECHARGE     =           0.0000
               GW ET     =    17516202.0000                 GW ET     =           0.0000
     SURFACE LEAKAGE     =           0.0000       SURFACE LEAKAGE     =           0.0000
           AG WELLS      =  1517359232.0000             AG WELLS      =          22.4700

               TOTAL OUT =  3564814848.0000                 TOTAL OUT =          32.2835

                IN - OUT =       -8704.0000                  IN - OUT =      -6.8665E-05

     PERCENT DISCREPANCY =          -0.00         PERCENT DISCREPANCY =          -0.00






         TIME SUMMARY AT END OF TIME STEP   30 IN STRESS PERIOD   43
                    SECONDS     MINUTES      HOURS       DAYS        YEARS
                    -----------------------------------------------------------
   TIME STEP LENGTH  87667.      1461.1      24.352      1.0147     2.77799E-03
 STRESS PERIOD TIME 2.63000E+06  43833.      730.56      30.440     8.33397E-02
         TOTAL TIME 1.10545E+08 1.84242E+06  30707.      1279.5      3.5030    
1
1
                            STRESS PERIOD NO.   44, LENGTH =   2630000.    
                            -----------------------------------------------

                              NUMBER OF TIME STEPS =    30

                               MULTIPLIER FOR DELT =     1.000

                            INITIAL TIME STEP SIZE =   87666.66    

 REUSING NON-PARAMETER GHB CELLS FROM LAST STRESS PERIOD

      2 GHB CELLS

 REUSING STREAM SEGMENT DATA FROM LAST STRESS PERIOD



            AREAL INFILTRATION RATE
 READING ON UNIT   19 WITH FORMAT: (FREE)              

            1           2           3           4           5           6           7           8           9          10
 ........................................................................................................................
   1   1.0000E-10  2.0000E-10   0.000       0.000       0.000       0.000       0.000       0.000       0.000       0.000    
   2   2.0000E-10  1.0000E-10  2.0000E-10   0.000       0.000      8.0000E-10  8.0000E-10  5.0000E-10   0.000       0.000    
   3    0.000      5.0000E-10  1.0000E-10  1.0000E-10  8.0000E-10  8.0000E-10  5.0000E-10  5.0000E-10   0.000       0.000    
   4   8.0000E-10  5.0000E-10  1.0000E-10  1.0000E-10  1.0000E-10  1.0000E-10  1.0000E-10  1.0000E-10  2.0000E-10   0.000    
   5   8.0000E-10  5.0000E-10  1.0000E-10  1.0000E-10  1.0000E-10  1.0000E-10  1.0000E-10  1.0000E-10  1.0000E-10  1.0000E-10
   6   8.0000E-10  5.0000E-10  5.0000E-10  2.0000E-10  2.0000E-10  1.0000E-10  1.0000E-10  1.0000E-10  1.0000E-10  5.0000E-10
   7   8.0000E-10  5.0000E-10  5.0000E-10  2.0000E-10  2.0000E-10  1.0000E-10  1.0000E-10  2.0000E-10  2.0000E-10   0.000    
   8    0.000      5.0000E-10  5.0000E-10  2.0000E-10  2.0000E-10  1.0000E-10  1.0000E-10  2.0000E-10  5.0000E-10   0.000    
   9    0.000      5.0000E-10  5.0000E-10  2.0000E-10  2.0000E-10  1.0000E-10  1.0000E-10  2.0000E-10  5.0000E-10   0.000    
  10    0.000      5.0000E-10  5.0000E-10  2.0000E-10  2.0000E-10  1.0000E-10  1.0000E-10  2.0000E-10  5.0000E-10  8.0000E-10
  11    0.000      1.0000E-10  1.0000E-10  1.0000E-10  1.0000E-10  1.0000E-10  1.0000E-10  2.0000E-10  5.0000E-10   0.000    
  12   1.0000E-10  1.0000E-10  1.0000E-10  1.0000E-10  1.0000E-10  1.0000E-10  1.0000E-10  1.0000E-10  2.0000E-10   0.000    
  13   1.0000E-10  1.0000E-10  2.0000E-10  2.0000E-10  2.0000E-10  2.0000E-10  2.0000E-10  1.0000E-10  1.0000E-10   0.000    
  14    0.000      2.0000E-10  5.0000E-10  5.0000E-10  5.0000E-10  5.0000E-10  5.0000E-10  2.0000E-10  1.0000E-10   0.000    
  15    0.000       0.000      8.0000E-10  8.0000E-10  8.0000E-10  8.0000E-10   0.000       0.000       0.000       0.000    

                  ET RATE =  4.000000E-07

 USING ET EXTINCTION DEPTH FROM PREVIOUS STRESS PERIOD. CURRENT PERIOD IS:      44

 USING EXTINCTION WATER CONTENT FROM PREVIOUS STRESS PERIOD. CURRENT PERIOD IS:      44

 USING AIR ENTRY PRESSURE FROM PREVIOUS STRESS PERIOD. CURRENT PERIOD IS:      44

 USING ROOT PRESSURE HEAD FROM PREVIOUS STRESS PERIOD. CURRENT PERIOD IS:      44

 USING ROOT ACTIVITY FROM PREVIOUS STRESS PERIOD. CURRENT PERIOD IS:      44

 PROCESSING AG STRESS PERIOD DATA

 READING AG STRESS PERIOD DATA

 READING IRRIGATION WELL

 END PROCESSING AG STRESS PERIOD DATA OPTIONS
 
 SOLVING FOR HEAD 
                                                   Max.-Head-Change                         Max.-Flux-Residual
  Residual-Control   Outer-Iter.   Inner-Iter.     Column Row Layer    Maximum-Head-Change  Column Row Layer    Maximum-Flux-Residual          L2-NORM 
          0                 1           2             4    7     1      -0.1623726627E+00       4    7    1        -0.8490333508E+01      0.1987115907E+02
          0                 2           2             5    8     1      -0.1742397756E-02       5    8    1        -0.9596334328E-01      0.2410570391E+00
          0                 3           2             4    7     1      -0.6114659269E-01       4    7    1        -0.3192377769E+01      0.7809732317E+01
          0                 4           2             4    7     1      -0.2741139812E-02       5    8    1        -0.1436875026E+00      0.3514335196E+00
          0                 5           2             4    7     1      -0.7571375136E-03       4    7    1        -0.3952881580E-01      0.9672653545E-01
          0                 6           1             4    7     1       0.5954006151E-04       4    7    1         0.3195753289E-02      0.7819889453E-02

    ------------------------------------------------
       NWT REQUIRED            6 OUTER ITERATIONS 
       AND A TOTAL OF         11 INNER ITERATIONS.
    ------------------------------------------------

 NO OUTPUT CONTROL FOR STRESS PERIOD   44   TIME STEP    1
 
 SOLVING FOR HEAD 
                                                   Max.-Head-Change                         Max.-Flux-Residual
  Residual-Control   Outer-Iter.   Inner-Iter.     Column Row Layer    Maximum-Head-Change  Column Row Layer    Maximum-Flux-Residual          L2-NORM 
          0                 1           2             4    7     1      -0.1608316725E+00       4    7    1        -0.8414734748E+01      0.1937179290E+02
          0                 2           2             5    8     1      -0.2362741411E-02       5    8    1        -0.1301367356E+00      0.3120567681E+00
          0                 3           2             4    7     1      -0.6113133540E-01       4    7    1        -0.3191622922E+01      0.7804274356E+01
          0                 4           2             4    7     1      -0.2742688835E-02       5    8    1        -0.1440257561E+00      0.3519749000E+00
          0                 5           2             4    7     1      -0.7569853090E-03       4    7    1        -0.3952129246E-01      0.9667230091E-01
          0                 6           1             4    7     1       0.5952521925E-04       4    7    1         0.3195001300E-02      0.7814467956E-02

    ------------------------------------------------
       NWT REQUIRED            6 OUTER ITERATIONS 
       AND A TOTAL OF         11 INNER ITERATIONS.
    ------------------------------------------------

 NO OUTPUT CONTROL FOR STRESS PERIOD   44   TIME STEP    2
 
 SOLVING FOR HEAD 
                                                   Max.-Head-Change                         Max.-Flux-Residual
  Residual-Control   Outer-Iter.   Inner-Iter.     Column Row Layer    Maximum-Head-Change  Column Row Layer    Maximum-Flux-Residual          L2-NORM 
          0                 1           2             4    7     1      -0.1592127695E+00       4    7    1        -0.8334673921E+01      0.1890199316E+02
          0                 2           2             5    8     1      -0.2948465331E-02       5    8    1        -0.1623733710E+00      0.3804018800E+00
          0                 3           2             4    7     1      -0.6111531116E-01       4    7    1        -0.3190823454E+01      0.7799005321E+01
          0                 4           2             4    7     1      -0.2744316296E-02       5    8    1        -0.1443448888E+00      0.3524979490E+00
          0                 5           2             4    7     1      -0.7568254645E-03       4    7    1        -0.3951332247E-01      0.9661992519E-01
          0                 6           1             4    7     1       0.5950963057E-04       4    7    1         0.3194204638E-02      0.7809232273E-02

    ------------------------------------------------
       NWT REQUIRED            6 OUTER ITERATIONS 
       AND A TOTAL OF         11 INNER ITERATIONS.
    ------------------------------------------------

 NO OUTPUT CONTROL FOR STRESS PERIOD   44   TIME STEP    3
 
 SOLVING FOR HEAD 
                                                   Max.-Head-Change                         Max.-Flux-Residual
  Residual-Control   Outer-Iter.   Inner-Iter.     Column Row Layer    Maximum-Head-Change  Column Row Layer    Maximum-Flux-Residual          L2-NORM 
          0                 1           2             4    7     1      -0.1575232597E+00       4    7    1        -0.8250552485E+01      0.1845958224E+02
          0                 2           2             5    8     1      -0.3501981619E-02       5    8    1        -0.1928094518E+00      0.4459080955E+00
          0                 3           2             4    7     1      -0.6109859210E-01       4    7    1        -0.3189983376E+01      0.7793916020E+01
          0                 4           2             4    7     1      -0.2746014850E-02       5    8    1        -0.1446462441E+00      0.3530035008E+00
          0                 5           2             4    7     1      -0.7566586998E-03       4    7    1        -0.3950494598E-01      0.9656931882E-01
          0                 6           1             4    7     1       0.5949336640E-04       4    7    1         0.3193367316E-02      0.7804173461E-02

    ------------------------------------------------
       NWT REQUIRED            6 OUTER ITERATIONS 
       AND A TOTAL OF         11 INNER ITERATIONS.
    ------------------------------------------------

 NO OUTPUT CONTROL FOR STRESS PERIOD   44   TIME STEP    4
 
 SOLVING FOR HEAD 
                                                   Max.-Head-Change                         Max.-Flux-Residual
  Residual-Control   Outer-Iter.   Inner-Iter.     Column Row Layer    Maximum-Head-Change  Column Row Layer    Maximum-Flux-Residual          L2-NORM 
          0                 1           2             4    7     1      -0.1557704114E+00       4    7    1        -0.8162771072E+01      0.1804254964E+02
          0                 2           2             5    8     1      -0.4025563452E-02       5    8    1        -0.2215731707E+00      0.5086101977E+00
          0                 3           2             4    7     1      -0.6108124999E-01       4    7    1        -0.3189106695E+01      0.7788997595E+01
          0                 4           2             4    7     1      -0.2747777188E-02       5    8    1        -0.1449310865E+00      0.3534923696E+00
          0                 5           2             4    7     1      -0.7564857302E-03       4    7    1        -0.3949620299E-01      0.9652039610E-01
          0                 6           1             4    7     1       0.5947649681E-04       4    7    1         0.3192493368E-02      0.7799283005E-02

    ------------------------------------------------
       NWT REQUIRED            6 OUTER ITERATIONS 
       AND A TOTAL OF         11 INNER ITERATIONS.
    ------------------------------------------------

 NO OUTPUT CONTROL FOR STRESS PERIOD   44   TIME STEP    5
 
 SOLVING FOR HEAD 
                                                   Max.-Head-Change                         Max.-Flux-Residual
  Residual-Control   Outer-Iter.   Inner-Iter.     Column Row Layer    Maximum-Head-Change  Column Row Layer    Maximum-Flux-Residual          L2-NORM 
          0                 1           2             4    7     1      -0.1539609368E+00       4    7    1        -0.8071699216E+01      0.1764909360E+02
          0                 2           2             5    8     1      -0.4521286018E-02       5    8    1        -0.2487816092E+00      0.5686124709E+00
          0                 3           2             4    7     1      -0.6106335110E-01       4    7    1        -0.3188197102E+01      0.7784242099E+01
          0                 4           2             4    7     1      -0.2749596561E-02       5    8    1        -0.1452005706E+00      0.3539652893E+00
          0                 5           2             4    7     1      -0.7563072156E-03       4    7    1        -0.3948713043E-01      0.9647307987E-01
          0                 6           1             4    7     1       0.5945908541E-04       4    7    1         0.3191586433E-02      0.7794552956E-02

    ------------------------------------------------
       NWT REQUIRED            6 OUTER ITERATIONS 
       AND A TOTAL OF         11 INNER ITERATIONS.
    ------------------------------------------------

 NO OUTPUT CONTROL FOR STRESS PERIOD   44   TIME STEP    6
 
 SOLVING FOR HEAD 
                                                   Max.-Head-Change                         Max.-Flux-Residual
  Residual-Control   Outer-Iter.   Inner-Iter.     Column Row Layer    Maximum-Head-Change  Column Row Layer    Maximum-Flux-Residual          L2-NORM 
          0                 1           2             4    7     1      -0.1521011196E+00       4    7    1        -0.7977684903E+01      0.1727753081E+02
          0                 2           2             5    8     1      -0.4991017295E-02       5    8    1        -0.2745400260E+00      0.6260455659E+00
          0                 3           2             4    7     1      -0.6104495748E-01       4    7    1        -0.3187258076E+01      0.7779641729E+01
          0                 4           2             4    7     1      -0.2751466651E-02       5    8    1        -0.1454557347E+00      0.3544229892E+00
          0                 5           2             4    7     1      -0.7561237758E-03       4    7    1        -0.3947776313E-01      0.9642729442E-01
          0                 6           1             4    7     1       0.5944119290E-04       4    7    1         0.3190650015E-02      0.7789976007E-02

    ------------------------------------------------
       NWT REQUIRED            6 OUTER ITERATIONS 
       AND A TOTAL OF         11 INNER ITERATIONS.
    ------------------------------------------------

 NO OUTPUT CONTROL FOR STRESS PERIOD   44   TIME STEP    7
 
 SOLVING FOR HEAD 
                                                   Max.-Head-Change                         Max.-Flux-Residual
  Residual-Control   Outer-Iter.   Inner-Iter.     Column Row Layer    Maximum-Head-Change  Column Row Layer    Maximum-Flux-Residual          L2-NORM 
          0                 1           2             4    7     1      -0.1501968595E+00       4    7    1        -0.7881053903E+01      0.1692634488E+02
          0                 2           2             5    8     1      -0.5436559805E-02       5    8    1        -0.2989499573E+00      0.6810450360E+00
          0                 3           2             4    7     1      -0.6102612736E-01       4    7    1        -0.3186292873E+01      0.7775189390E+01
          0                 4           2             4    7     1      -0.2753381525E-02       5    8    1        -0.1456975805E+00      0.3548664424E+00
          0                 5           2             4    7     1      -0.7559359903E-03       4    7    1        -0.3946813358E-01      0.9638419200E-01
          0                 6           1             4    7     1       0.5942287561E-04       4    7    1         0.3189687368E-02      0.7785546677E-02

    ------------------------------------------------
       NWT REQUIRED            6 OUTER ITERATIONS 
       AND A TOTAL OF         11 INNER ITERATIONS.
    ------------------------------------------------

 NO OUTPUT CONTROL FOR STRESS PERIOD   44   TIME STEP    8
 
 SOLVING FOR HEAD 
                                                   Max.-Head-Change                         Max.-Flux-Residual
  Residual-Control   Outer-Iter.   Inner-Iter.     Column Row Layer    Maximum-Head-Change  Column Row Layer    Maximum-Flux-Residual          L2-NORM 
          0                 1           2             4    7     1      -0.1482538072E+00       4    7    1        -0.7782119345E+01      0.1659413276E+02
          0                 2           2             5    8     1      -0.5859532519E-02       5    8    1        -0.3221025228E+00      0.7337454796E+00
          0                 3           2             4    7     1      -0.6100691653E-01       4    7    1        -0.3185304623E+01      0.7770878270E+01
          0                 4           2             4    7     1      -0.2755335501E-02       5    8    1        -0.1459270070E+00      0.3552953743E+00
          0                 5           2             4    7     1      -0.7557444155E-03       4    7    1        -0.3945827311E-01      0.9634004236E-01
          0                 6           1             4    7     1       0.5940418851E-04       4    7    1         0.3188701622E-02      0.7781253574E-02

    ------------------------------------------------
       NWT REQUIRED            6 OUTER ITERATIONS 
       AND A TOTAL OF         11 INNER ITERATIONS.
    ------------------------------------------------

 NO OUTPUT CONTROL FOR STRESS PERIOD   44   TIME STEP    9
 
 SOLVING FOR HEAD 
                                                   Max.-Head-Change                         Max.-Flux-Residual
  Residual-Control   Outer-Iter.   Inner-Iter.     Column Row Layer    Maximum-Head-Change  Column Row Layer    Maximum-Flux-Residual          L2-NORM 
          0                 1           2             4    7     1      -0.1462771046E+00       4    7    1        -0.7681166909E+01      0.1627961022E+02
          0                 2           2             5    8     1      -0.6261413124E-02       5    8    1        -0.3440808883E+00      0.7842767160E+00
          0                 3           2             4    7     1      -0.6098737574E-01       4    7    1        -0.3184296181E+01      0.7766701961E+01
          0                 4           2             4    7     1      -0.2757323409E-02       5    8    1        -0.1461448344E+00      0.3557113146E+00
          0                 5           2             4    7     1      -0.7555495572E-03       4    7    1        -0.3944821027E-01      0.9629844681E-01
          0                 6           1             4    7     1       0.5938518028E-04       4    7    1         0.3187695620E-02      0.7777095142E-02

    ------------------------------------------------
       NWT REQUIRED            6 OUTER ITERATIONS 
       AND A TOTAL OF         11 INNER ITERATIONS.
    ------------------------------------------------

 NO OUTPUT CONTROL FOR STRESS PERIOD   44   TIME STEP   10
 
 SOLVING FOR HEAD 
                                                   Max.-Head-Change                         Max.-Flux-Residual
  Residual-Control   Outer-Iter.   Inner-Iter.     Column Row Layer    Maximum-Head-Change  Column Row Layer    Maximum-Flux-Residual          L2-NORM 
          0                 1           2             4    7     1      -0.1442715506E+00       4    7    1        -0.7578463177E+01      0.1598159238E+02
          0                 2           2             5    8     1      -0.6643610098E-02       5    8    1        -0.3649640107E+00      0.8326609988E+00
          0                 3           2             4    7     1      -0.6096755230E-01       4    7    1        -0.3183270213E+01      0.7762654280E+01
          0                 4           2             4    7     1      -0.2759340439E-02       5    8    1        -0.1463518426E+00      0.3561145537E+00
          0                 5           2             4    7     1      -0.7553518873E-03       4    7    1        -0.3943797169E-01      0.9625812281E-01
          0                 6           1             4    7     1       0.5936589713E-04       4    7    1         0.3186672046E-02      0.7773063945E-02

    ------------------------------------------------
       NWT REQUIRED            6 OUTER ITERATIONS 
       AND A TOTAL OF         11 INNER ITERATIONS.
    ------------------------------------------------

 NO OUTPUT CONTROL FOR STRESS PERIOD   44   TIME STEP   11
 
 SOLVING FOR HEAD 
                                                   Max.-Head-Change                         Max.-Flux-Residual
  Residual-Control   Outer-Iter.   Inner-Iter.     Column Row Layer    Maximum-Head-Change  Column Row Layer    Maximum-Flux-Residual          L2-NORM 
          0                 1           2             4    7     1      -0.1422418864E+00       4    7    1        -0.7474271516E+01      0.1569905708E+02
          0                 2           2             5    8     1      -0.7007393705E-02       5    8    1        -0.3848239497E+00      0.8793230776E+00
          0                 3           2             4    7     1      -0.6094749326E-01       4    7    1        -0.3182229351E+01      0.7758730022E+01
          0                 4           2             4    7     1      -0.2761381776E-02       5    8    1        -0.1465487404E+00      0.3565055672E+00
          0                 5           2             4    7     1      -0.7551518745E-03       4    7    1        -0.3942758370E-01      0.9621902220E-01
          0                 6           1             4    7     1       0.5934638504E-04       4    7    1         0.3185633531E-02      0.7769154871E-02

    ------------------------------------------------
       NWT REQUIRED            6 OUTER ITERATIONS 
       AND A TOTAL OF         11 INNER ITERATIONS.
    ------------------------------------------------

 NO OUTPUT CONTROL FOR STRESS PERIOD   44   TIME STEP   12
 
 SOLVING FOR HEAD 
                                                   Max.-Head-Change                         Max.-Flux-Residual
  Residual-Control   Outer-Iter.   Inner-Iter.     Column Row Layer    Maximum-Head-Change  Column Row Layer    Maximum-Flux-Residual          L2-NORM 
          0                 1           2             4    7     1      -0.1401921185E+00       4    7    1        -0.7368815745E+01      0.1543102120E+02
          0                 2           2             5    8     1      -0.7353958280E-02       5    8    1        -0.4037271378E+00      0.9240715205E+00
          0                 3           2             4    7     1      -0.6092723783E-01       4    7    1        -0.3181175832E+01      0.7754923419E+01
          0                 4           2             4    7     1      -0.2763443434E-02       5    8    1        -0.1467361856E+00      0.3568849444E+00
          0                 5           2             4    7     1      -0.7549499098E-03       4    7    1        -0.3941706868E-01      0.9618108569E-01
          0                 6           1             4    7     1       0.5932668197E-04       4    7    1         0.3184582306E-02      0.7765362520E-02

    ------------------------------------------------
       NWT REQUIRED            6 OUTER ITERATIONS 
       AND A TOTAL OF         11 INNER ITERATIONS.
    ------------------------------------------------

 NO OUTPUT CONTROL FOR STRESS PERIOD   44   TIME STEP   13
 
 SOLVING FOR HEAD 
                                                   Max.-Head-Change                         Max.-Flux-Residual
  Residual-Control   Outer-Iter.   Inner-Iter.     Column Row Layer    Maximum-Head-Change  Column Row Layer    Maximum-Flux-Residual          L2-NORM 
          0                 1           2             4    7     1      -0.1381263701E+00       4    7    1        -0.7262325540E+01      0.1517652345E+02
          0                 2           2             5    8     1      -0.7684407100E-02       5    8    1        -0.4217357155E+00      0.9670986069E+00
          0                 3           2             4    7     1      -0.6090682683E-01       4    7    1        -0.3180111951E+01      0.7751229554E+01
          0                 4           2             4    7     1      -0.2765521253E-02       5    8    1        -0.1469147907E+00      0.3572531496E+00
          0                 5           2             4    7     1      -0.7547463995E-03       4    7    1        -0.3940644958E-01      0.9614426585E-01
          0                 6           1             4    7     1       0.5930682733E-04       4    7    1         0.3183520645E-02      0.7761680934E-02

    ------------------------------------------------
       NWT REQUIRED            6 OUTER ITERATIONS 
       AND A TOTAL OF         11 INNER ITERATIONS.
    ------------------------------------------------

 NO OUTPUT CONTROL FOR STRESS PERIOD   44   TIME STEP   14
 
 SOLVING FOR HEAD 
                                                   Max.-Head-Change                         Max.-Flux-Residual
  Residual-Control   Outer-Iter.   Inner-Iter.     Column Row Layer    Maximum-Head-Change  Column Row Layer    Maximum-Flux-Residual          L2-NORM 
          0                 1           2             4    7     1      -0.1360481959E+00       4    7    1        -0.7155000080E+01      0.1493470931E+02
          0                 2           2             5    8     1      -0.7999750062E-02       5    8    1        -0.4389062975E+00      0.1008498922E+01
          0                 3           2             4    7     1      -0.6088629534E-01       4    7    1        -0.3179039701E+01      0.7747643576E+01
          0                 4           2             4    7     1      -0.2767611657E-02       5    8    1        -0.1470851146E+00      0.3576106549E+00
          0                 5           2             4    7     1      -0.7545416941E-03       4    7    1        -0.3939574632E-01      0.9610851525E-01
          0                 6           1             4    7     1       0.5928685591E-04       4    7    1         0.3182450593E-02      0.7758106637E-02

    ------------------------------------------------
       NWT REQUIRED            6 OUTER ITERATIONS 
       AND A TOTAL OF         11 INNER ITERATIONS.
    ------------------------------------------------

 NO OUTPUT CONTROL FOR STRESS PERIOD   44   TIME STEP   15
 
 SOLVING FOR HEAD 
                                                   Max.-Head-Change                         Max.-Flux-Residual
  Residual-Control   Outer-Iter.   Inner-Iter.     Column Row Layer    Maximum-Head-Change  Column Row Layer    Maximum-Flux-Residual          L2-NORM 
          0                 1           2             4    7     1      -0.1339610214E+00       4    7    1        -0.7047030892E+01      0.1470480526E+02
          0                 2           2             5    8     1      -0.8300900805E-02       5    8    1        -0.4552920260E+00      0.1048391136E+01
          0                 3           2             4    7     1      -0.6086567715E-01       4    7    1        -0.3177960995E+01      0.7744161040E+01
          0                 4           2             4    7     1      -0.2769711201E-02       5    8    1        -0.1472476838E+00      0.3579578955E+00
          0                 5           2             4    7     1      -0.7543361302E-03       4    7    1        -0.3938497807E-01      0.9607379035E-01
          0                 6           1             4    7     1       0.5926680006E-04       4    7    1         0.3181374016E-02      0.7754634754E-02

    ------------------------------------------------
       NWT REQUIRED            6 OUTER ITERATIONS 
       AND A TOTAL OF         11 INNER ITERATIONS.
    ------------------------------------------------

 NO OUTPUT CONTROL FOR STRESS PERIOD   44   TIME STEP   16
 
 SOLVING FOR HEAD 
                                                   Max.-Head-Change                         Max.-Flux-Residual
  Residual-Control   Outer-Iter.   Inner-Iter.     Column Row Layer    Maximum-Head-Change  Column Row Layer    Maximum-Flux-Residual          L2-NORM 
          0                 1           2             4    7     1      -0.1318680138E+00       4    7    1        -0.6938595566E+01      0.1448607272E+02
          0                 2           2             5    8     1      -0.8588857340E-02       5    8    1        -0.4709422548E+00      0.1086782337E+01
          0                 3           2             4    7     1      -0.6084500350E-01       4    7    1        -0.3176877610E+01      0.7740777481E+01
          0                 4           2             4    7     1      -0.2771816699E-02       5    8    1        -0.1474030246E+00      0.3582953217E+00
          0                 5           2             4    7     1      -0.7541300185E-03       4    7    1        -0.3937416254E-01      0.9604004931E-01
          0                 6           1             4    7     1       0.5924669021E-04       4    7    1         0.3180292699E-02      0.7751296947E-02

    ------------------------------------------------
       NWT REQUIRED            6 OUTER ITERATIONS 
       AND A TOTAL OF         11 INNER ITERATIONS.
    ------------------------------------------------

 NO OUTPUT CONTROL FOR STRESS PERIOD   44   TIME STEP   17
 
 SOLVING FOR HEAD 
                                                   Max.-Head-Change                         Max.-Flux-Residual
  Residual-Control   Outer-Iter.   Inner-Iter.     Column Row Layer    Maximum-Head-Change  Column Row Layer    Maximum-Flux-Residual          L2-NORM 
          0                 1           2             4    7     1      -0.1297720912E+00       4    7    1        -0.6829858285E+01      0.1427779116E+02
          0                 2           2             5    8     1      -0.8864361619E-02       5    8    1        -0.4859032381E+00      0.1123786571E+01
          0                 3           2             4    7     1      -0.6082430319E-01       4    7    1        -0.3175791186E+01      0.7737488830E+01
          0                 4           2             4    7     1      -0.2773925215E-02       5    8    1        -0.1475515277E+00      0.3586233070E+00
          0                 5           2             4    7     1      -0.7539236462E-03       4    7    1        -0.3936331617E-01      0.9600724377E-01
          0                 6           1             4    7     1       0.5922655409E-04       4    7    1         0.3179208284E-02      0.7747981087E-02

    ------------------------------------------------
       NWT REQUIRED            6 OUTER ITERATIONS 
       AND A TOTAL OF         11 INNER ITERATIONS.
    ------------------------------------------------

 NO OUTPUT CONTROL FOR STRESS PERIOD   44   TIME STEP   18
 
 SOLVING FOR HEAD 
                                                   Max.-Head-Change                         Max.-Flux-Residual
  Residual-Control   Outer-Iter.   Inner-Iter.     Column Row Layer    Maximum-Head-Change  Column Row Layer    Maximum-Flux-Residual          L2-NORM 
          0                 1           2             4    7     1      -0.1276759524E+00       4    7    1        -0.6720970326E+01      0.1407931597E+02
          0                 2           2             5    8     1      -0.9128170853E-02       5    8    1        -0.5002175852E+00      0.1159489402E+01
          0                 3           2             4    7     1      -0.6080360282E-01       4    7    1        -0.3174703235E+01      0.7734291351E+01
          0                 4           2             4    7     1      -0.2776034035E-02       5    8    1        -0.1476936365E+00      0.3589422296E+00
          0                 5           2             4    7     1      -0.7537172791E-03       4    7    1        -0.3935245409E-01      0.9597534613E-01
          0                 6           1             4    7     1       0.5920641869E-04       4    7    1         0.3178122308E-02      0.7744791793E-02

    ------------------------------------------------
       NWT REQUIRED            6 OUTER ITERATIONS 
       AND A TOTAL OF         11 INNER ITERATIONS.
    ------------------------------------------------

 NO OUTPUT CONTROL FOR STRESS PERIOD   44   TIME STEP   19
 
 SOLVING FOR HEAD 
                                                   Max.-Head-Change                         Max.-Flux-Residual
  Residual-Control   Outer-Iter.   Inner-Iter.     Column Row Layer    Maximum-Head-Change  Column Row Layer    Maximum-Flux-Residual          L2-NORM 
          0                 1           2             4    7     1      -0.1255820685E+00       4    7    1        -0.6612071592E+01      0.1389017358E+02
          0                 2           2             5    8     1      -0.9381024560E-02       5    8    1        -0.5139263987E+00      0.1193958526E+01
          0                 3           2             4    7     1      -0.6078292677E-01       4    7    1        -0.3173615158E+01      0.7731181206E+01
          0                 4           2             4    7     1      -0.2778140671E-02       5    8    1        -0.1478297584E+00      0.3592524673E+00
          0                 5           2             4    7     1      -0.7535111594E-03       4    7    1        -0.3934159028E-01      0.9594431548E-01
          0                 6           1             4    7     1       0.5918630689E-04       4    7    1         0.3177036155E-02      0.7741689112E-02

    ------------------------------------------------
       NWT REQUIRED            6 OUTER ITERATIONS 
       AND A TOTAL OF         11 INNER ITERATIONS.
    ------------------------------------------------

 NO OUTPUT CONTROL FOR STRESS PERIOD   44   TIME STEP   20
 
 SOLVING FOR HEAD 
                                                   Max.-Head-Change                         Max.-Flux-Residual
  Residual-Control   Outer-Iter.   Inner-Iter.     Column Row Layer    Maximum-Head-Change  Column Row Layer    Maximum-Flux-Residual          L2-NORM 
          0                 1           2             4    7     1      -0.1234925832E+00       4    7    1        -0.6503282960E+01      0.1370983951E+02
          0                 2           2             5    8     1      -0.9623522246E-02       5    8    1        -0.5270632298E+00      0.1227254925E+01
          0                 3           2             4    7     1      -0.6076229616E-01       4    7    1        -0.3172528161E+01      0.7728155057E+01
          0                 4           2             4    7     1      -0.2780242968E-02       5    8    1        -0.1479602242E+00      0.3595543493E+00
          0                 5           2             4    7     1      -0.7533054981E-03       4    7    1        -0.3933073686E-01      0.9591411886E-01
          0                 6           1             4    7     1       0.5916623901E-04       4    7    1         0.3175951022E-02      0.7738669760E-02

    ------------------------------------------------
       NWT REQUIRED            6 OUTER ITERATIONS 
       AND A TOTAL OF         11 INNER ITERATIONS.
    ------------------------------------------------

 NO OUTPUT CONTROL FOR STRESS PERIOD   44   TIME STEP   21
 
 SOLVING FOR HEAD 
                                                   Max.-Head-Change                         Max.-Flux-Residual
  Residual-Control   Outer-Iter.   Inner-Iter.     Column Row Layer    Maximum-Head-Change  Column Row Layer    Maximum-Flux-Residual          L2-NORM 
          0                 1           2             4    7     1      -0.1214097136E+00       4    7    1        -0.6394730012E+01      0.1353782829E+02
          0                 2           2             5    8     1      -0.9844552134E-02       5    8    1        -0.5389101048E+00      0.1259346372E+01
          0                 3           2             4    7     1      -0.6074172395E-01       4    7    1        -0.3171443501E+01      0.7725209359E+01
          0                 4           2             4    7     1      -0.2782340908E-02       5    8    1        -0.1480778506E+00      0.3598481801E+00
          0                 5           2             4    7     1      -0.7531004456E-03       4    7    1        -0.3931990634E-01      0.9588472165E-01
          0                 6           1             4    7     1       0.5914622830E-04       4    7    1         0.3174868189E-02      0.7735730329E-02

    ------------------------------------------------
       NWT REQUIRED            6 OUTER ITERATIONS 
       AND A TOTAL OF         11 INNER ITERATIONS.
    ------------------------------------------------

 NO OUTPUT CONTROL FOR STRESS PERIOD   44   TIME STEP   22
 
 SOLVING FOR HEAD 
                                                   Max.-Head-Change                         Max.-Flux-Residual
  Residual-Control   Outer-Iter.   Inner-Iter.     Column Row Layer    Maximum-Head-Change  Column Row Layer    Maximum-Flux-Residual          L2-NORM 
          0                 1           2             4    7     1      -0.1193360097E+00       4    7    1        -0.6286530356E+01      0.1337377183E+02
          0                 2           2             5    8     1      -0.1008280741E-01       5    8    1        -0.5518252355E+00      0.1290574775E+01
          0                 3           2             4    7     1      -0.6072127094E-01       4    7    1        -0.3170362354E+01      0.7722341619E+01
          0                 4           2             4    7     1      -0.2784425712E-02       5    8    1        -0.1482062169E+00      0.3601343482E+00
          0                 5           2             4    7     1      -0.7528965657E-03       4    7    1        -0.3930911055E-01      0.9585609822E-01
          0                 6           1             4    7     1       0.5912633351E-04       4    7    1         0.3173788810E-02      0.7732868238E-02

    ------------------------------------------------
       NWT REQUIRED            6 OUTER ITERATIONS 
       AND A TOTAL OF         11 INNER ITERATIONS.
    ------------------------------------------------

 NO OUTPUT CONTROL FOR STRESS PERIOD   44   TIME STEP   23
 
 SOLVING FOR HEAD 
                                                   Max.-Head-Change                         Max.-Flux-Residual
  Residual-Control   Outer-Iter.   Inner-Iter.     Column Row Layer    Maximum-Head-Change  Column Row Layer    Maximum-Flux-Residual          L2-NORM 
          0                 1           2             4    7     1      -0.1172726152E+00       4    7    1        -0.6178787123E+01      0.1321720563E+02
          0                 2           2             5    8     1      -0.1029948828E-01       5    8    1        -0.5635402745E+00      0.1320869961E+01
          0                 3           2             4    7     1      -0.6070090397E-01       4    7    1        -0.3169285751E+01      0.7719548590E+01
          0                 4           2             4    7     1      -0.2786501981E-02       5    8    1        -0.1483226320E+00      0.3604130251E+00
          0                 5           2             4    7     1      -0.7526935471E-03       4    7    1        -0.3929835974E-01      0.9582821886E-01
          0                 6           1             4    7     1       0.5910652218E-04       4    7    1         0.3172713918E-02      0.7730080257E-02

    ------------------------------------------------
       NWT REQUIRED            6 OUTER ITERATIONS 
       AND A TOTAL OF         11 INNER ITERATIONS.
    ------------------------------------------------

 NO OUTPUT CONTROL FOR STRESS PERIOD   44   TIME STEP   24
 
 SOLVING FOR HEAD 
                                                   Max.-Head-Change                         Max.-Flux-Residual
  Residual-Control   Outer-Iter.   Inner-Iter.     Column Row Layer    Maximum-Head-Change  Column Row Layer    Maximum-Flux-Residual          L2-NORM 
          0                 1           2             4    7     1      -0.1152213733E+00       4    7    1        -0.6071595069E+01      0.1306756085E+02
          0                 2           2             5    8     1      -0.1050790774E-01       5    8    1        -0.5747993497E+00      0.1349869289E+01
          0                 3           2             4    7     1      -0.6068065843E-01       4    7    1        -0.3168214639E+01      0.7716826793E+01
          0                 4           2             4    7     1      -0.2788566165E-02       5    8    1        -0.1484345395E+00      0.3606846426E+00
          0                 5           2             4    7     1      -0.7524917444E-03       4    7    1        -0.3928766344E-01      0.9580104440E-01
          0                 6           1             4    7     1       0.5908682884E-04       4    7    1         0.3171644482E-02      0.7727362906E-02

    ------------------------------------------------
       NWT REQUIRED            6 OUTER ITERATIONS 
       AND A TOTAL OF         11 INNER ITERATIONS.
    ------------------------------------------------

 NO OUTPUT CONTROL FOR STRESS PERIOD   44   TIME STEP   25
 
 SOLVING FOR HEAD 
                                                   Max.-Head-Change                         Max.-Flux-Residual
  Residual-Control   Outer-Iter.   Inner-Iter.     Column Row Layer    Maximum-Head-Change  Column Row Layer    Maximum-Flux-Residual          L2-NORM 
          0                 1           2             4    7     1      -0.1131835478E+00       4    7    1        -0.5965026496E+01      0.1292448855E+02
          0                 2           2             5    8     1      -0.1070809816E-01       5    8    1        -0.5856269343E+00      0.1377920149E+01
          0                 3           2             4    7     1      -0.6065902755E-01       4    7    1        -0.3166978848E+01      0.7714173951E+01
          0                 4           2             4    7     1      -0.2790934008E-02       5    8    1        -0.1485421766E+00      0.3609492704E+00
          0                 5           2             4    7     1      -0.7522788083E-03       4    7    1        -0.3927532016E-01      0.9577455776E-01
          0                 6           1             4    7     1       0.5906579011E-04       4    7    1         0.3170410336E-02      0.7724714238E-02

    ------------------------------------------------
       NWT REQUIRED            6 OUTER ITERATIONS 
       AND A TOTAL OF         11 INNER ITERATIONS.
    ------------------------------------------------

 NO OUTPUT CONTROL FOR STRESS PERIOD   44   TIME STEP   26
 
 SOLVING FOR HEAD 
                                                   Max.-Head-Change                         Max.-Flux-Residual
  Residual-Control   Outer-Iter.   Inner-Iter.     Column Row Layer    Maximum-Head-Change  Column Row Layer    Maximum-Flux-Residual          L2-NORM 
          0                 1           2             4    7     1      -0.1112340512E+00       4    7    1        -0.5860609356E+01      0.1278794310E+02
          0                 2           2             5    8     1      -0.1090182837E-01       5    8    1        -0.5960510438E+00      0.1405497226E+01
          0                 3           2             4    7     1      -0.6064243137E-01       4    7    1        -0.3166106482E+01      0.7711588375E+01
          0                 4           2             4    7     1      -0.2792633218E-02       5    8    1        -0.1486458231E+00      0.3612074145E+00
          0                 5           2             4    7     1      -0.7521134954E-03       4    7    1        -0.3926661033E-01      0.9574873848E-01
          0                 6           1             4    7     1       0.5904964624E-04       4    7    1         0.3169539522E-02      0.7722132508E-02

    ------------------------------------------------
       NWT REQUIRED            6 OUTER ITERATIONS 
       AND A TOTAL OF         11 INNER ITERATIONS.
    ------------------------------------------------

 NO OUTPUT CONTROL FOR STRESS PERIOD   44   TIME STEP   27
 
 SOLVING FOR HEAD 
                                                   Max.-Head-Change                         Max.-Flux-Residual
  Residual-Control   Outer-Iter.   Inner-Iter.     Column Row Layer    Maximum-Head-Change  Column Row Layer    Maximum-Flux-Residual          L2-NORM 
          0                 1           2             4    7     1      -0.1092714251E+00       4    7    1        -0.5757966291E+01      0.1265756211E+02
          0                 2           2             5    8     1      -0.1108820203E-01       5    8    1        -0.6060939637E+00      0.1432066971E+01
          0                 3           2             4    7     1      -0.6062307191E-01       4    7    1        -0.3165080796E+01      0.7709066681E+01
          0                 4           2             4    7     1      -0.2794608738E-02       5    8    1        -0.1487456978E+00      0.3614590990E+00
          0                 5           2             4    7     1      -0.7519205528E-03       4    7    1        -0.3925636703E-01      0.9572355521E-01
          0                 6           1             4    7     1       0.5903081525E-04       4    7    1         0.3168515366E-02      0.7719617634E-02

    ------------------------------------------------
       NWT REQUIRED            6 OUTER ITERATIONS 
       AND A TOTAL OF         11 INNER ITERATIONS.
    ------------------------------------------------

 NO OUTPUT CONTROL FOR STRESS PERIOD   44   TIME STEP   28
 
 SOLVING FOR HEAD 
                                                   Max.-Head-Change                         Max.-Flux-Residual
  Residual-Control   Outer-Iter.   Inner-Iter.     Column Row Layer    Maximum-Head-Change  Column Row Layer    Maximum-Flux-Residual          L2-NORM 
          0                 1           2             4    7     1      -0.1073230081E+00       4    7    1        -0.5656000270E+01      0.1253290305E+02
          0                 2           2             5    8     1      -0.1126802459E-01       5    8    1        -0.6157771527E+00      0.1457843982E+01
          0                 3           2             4    7     1      -0.6060385445E-01       4    7    1        -0.3164061860E+01      0.7706606812E+01
          0                 4           2             4    7     1      -0.2796570041E-02       5    8    1        -0.1488420134E+00      0.3617046247E+00
          0                 5           2             4    7     1      -0.7517290299E-03       4    7    1        -0.3924619086E-01      0.9569898700E-01
          0                 6           1             4    7     1       0.5901212219E-04       4    7    1         0.3167497903E-02      0.7717157097E-02

    ------------------------------------------------
       NWT REQUIRED            6 OUTER ITERATIONS 
       AND A TOTAL OF         11 INNER ITERATIONS.
    ------------------------------------------------

 NO OUTPUT CONTROL FOR STRESS PERIOD   44   TIME STEP   29
 
 SOLVING FOR HEAD 
                                                   Max.-Head-Change                         Max.-Flux-Residual
  Residual-Control   Outer-Iter.   Inner-Iter.     Column Row Layer    Maximum-Head-Change  Column Row Layer    Maximum-Flux-Residual          L2-NORM 
          0                 1           2             4    7     1      -0.1053901086E+00       4    7    1        -0.5554785640E+01      0.1241369140E+02
          0                 2           2             5    8     1      -0.1144164251E-01       5    8    1        -0.6251198445E+00      0.1482864287E+01
          0                 3           2             4    7     1      -0.6058479187E-01       4    7    1        -0.3163050418E+01      0.7704206574E+01
          0                 4           2             4    7     1      -0.2798515809E-02       5    8    1        -0.1489349599E+00      0.3619442100E+00
          0                 5           2             4    7     1      -0.7515390553E-03       4    7    1        -0.3923608921E-01      0.9567501202E-01
          0                 6           1             4    7     1       0.5899358022E-04       4    7    1         0.3166487911E-02      0.7714759528E-02

    ------------------------------------------------
       NWT REQUIRED            6 OUTER ITERATIONS 
       AND A TOTAL OF         11 INNER ITERATIONS.
    ------------------------------------------------

 NO OUTPUT CONTROL FOR STRESS PERIOD   44   TIME STEP   30



 STREAM LISTING     PERIOD     44   STEP       30

 LAYER ROW COL. STREAM  RCH.  FLOW INTO     FLOW TO   FLOW OUT OF   OVRLND.     DIRECT     STREAM       STREAM     STREAM     STREAM   STREAMBED  STREAMBED
                SEG.NO.  NO.  STRM. RCH.    AQUIFER    STRM. RCH.    RUNOFF     PRECIP       ET          HEAD       DEPTH      WIDTH   CONDCTNC.   GRADIENT

   1    1    1     1     1    1.9000E+01  2.1427E-01   1.8786E+01  0.000E+00  0.000E+00  0.000E+00  1.09413E+03  1.082E+00  1.166E+01  5.249E-02  1.361E+00
   1    2    2     1     2    1.8786E+01  3.3054E-01   1.8455E+01  0.000E+00  0.000E+00  0.000E+00  1.08914E+03  1.077E+00  1.158E+01  8.107E-02  1.359E+00
   1    3    3     1     3    1.8455E+01  2.8064E-01   1.8175E+01  0.000E+00  0.000E+00  0.000E+00  1.08349E+03  1.072E+00  1.149E+01  6.892E-02  1.357E+00
   1    3    4     1     4    1.8175E+01  2.5740E-01   1.7917E+01  0.000E+00  0.000E+00  0.000E+00  1.07848E+03  1.068E+00  1.140E+01  6.328E-02  1.356E+00
   1    4    5     2     1    1.5917E+01  3.0542E-01   1.5612E+01  0.000E+00  0.000E+00  0.000E+00  1.07285E+03  9.157E-01  1.200E+01  7.800E-02  1.305E+00
   1    5    6     2     2    1.5612E+01  2.3438E-01   1.5377E+01  0.000E+00  0.000E+00  0.000E+00  1.06742E+03  9.063E-01  1.200E+01  6.000E-02  1.302E+00
   1    6    6     2     3    1.5377E+01  2.3388E-01   1.5143E+01  0.000E+00  0.000E+00  0.000E+00  1.06269E+03  8.980E-01  1.200E+01  6.000E-02  1.299E+00
   1    7    6     2     4    1.5143E+01  2.3338E-01   1.4910E+01  0.000E+00  0.000E+00  0.000E+00  1.05797E+03  8.897E-01  1.200E+01  6.000E-02  1.297E+00
   1    8    6     2     5    1.4910E+01  2.3289E-01   1.4677E+01  0.000E+00  0.000E+00  0.000E+00  1.05324E+03  8.814E-01  1.200E+01  6.000E-02  1.294E+00
   1    3    5     3     1    2.0000E+00  2.8252E-01   1.7175E+00  0.000E+00  0.000E+00  0.000E+00  1.07555E+03  1.909E+00  9.636E+00  7.227E-02  1.955E+00
   1    3    6     3     2    1.7175E+00  2.4905E-01   1.4684E+00  0.000E+00  0.000E+00  0.000E+00  1.07264E+03  1.727E+00  8.909E+00  6.682E-02  1.864E+00
   1    3    7     3     3    1.4684E+00  1.9718E-01   1.2712E+00  0.000E+00  0.000E+00  0.000E+00  1.06987E+03  1.555E+00  8.218E+00  5.547E-02  1.777E+00
   1    4    8     3     4    1.2712E+00  2.2567E-01   1.0456E+00  0.000E+00  0.000E+00  0.000E+00  1.06682E+03  1.364E+00  7.455E+00  6.709E-02  1.682E+00
   1    5    8     3     5    1.0456E+00  1.5790E-01   8.8768E-01  0.000E+00  0.000E+00  0.000E+00  1.06362E+03  1.164E+00  6.655E+00  4.991E-02  1.582E+00
   1    6    8     3     6    8.8768E-01  5.5980E-02   8.3170E-01  0.000E+00  0.000E+00  0.000E+00  1.06158E+03  1.036E+00  6.145E+00  1.844E-02  1.518E+00
   1    5   10     4     1    1.0000E+01  9.0919E-02   9.9091E+00  0.000E+00  0.000E+00  0.000E+00  1.07836E+03  6.368E-01  1.000E+01  2.500E-02  1.212E+00
   1    5    9     4     2    9.9091E+00  1.8158E-01   9.7275E+00  0.000E+00  0.000E+00  0.000E+00  1.07154E+03  6.315E-01  1.000E+01  5.000E-02  1.211E+00
   1    6    8     4     3    9.7275E+00  1.2689E-01   9.6006E+00  0.000E+00  0.000E+00  0.000E+00  1.06381E+03  6.256E-01  1.000E+01  3.500E-02  1.209E+00
   1    6    8     5     1    1.0432E+01  2.2686E-01   1.0205E+01  0.000E+00  0.000E+00  0.000E+00  1.05868E+03  6.790E-01  1.542E+01  6.166E-02  1.226E+00
   1    7    7     5     2    1.0205E+01  2.7894E-01   9.9265E+00  0.000E+00  0.000E+00  0.000E+00  1.05417E+03  6.732E-01  1.519E+01  7.594E-02  1.224E+00
   1    8    7     5     3    9.9265E+00  1.9221E-01   9.7343E+00  0.000E+00  0.000E+00  0.000E+00  1.04992E+03  6.676E-01  1.497E+01  5.241E-02  1.223E+00
   1    8    6     5     4    9.7343E+00  1.3577E-01   9.5985E+00  0.000E+00  0.000E+00  0.000E+00  1.04691E+03  6.637E-01  1.482E+01  3.706E-02  1.221E+00
   1    9    6     6     1    2.4276E+01  2.5176E-01   2.4024E+01  0.000E+00  0.000E+00  0.000E+00  1.04392E+03  1.196E+00  1.200E+01  6.000E-02  1.399E+00
   1   10    7     6     2    2.4024E+01  2.5131E-01   2.3773E+01  0.000E+00  0.000E+00  0.000E+00  1.03937E+03  1.188E+00  1.200E+01  6.000E-02  1.396E+00
   1   11    7     6     3    2.3773E+01  2.5086E-01   2.3522E+01  0.000E+00  0.000E+00  0.000E+00  1.03482E+03  1.181E+00  1.200E+01  6.000E-02  1.394E+00
   1   12    7     6     4    2.3522E+01  2.5041E-01   2.3271E+01  0.000E+00  0.000E+00  0.000E+00  1.03026E+03  1.173E+00  1.200E+01  6.000E-02  1.391E+00
   1   13    7     6     5    2.3271E+01  1.1605E-02   2.3260E+01  0.000E+00  0.000E+00  0.000E+00  1.02708E+03  1.169E+00  1.200E+01  2.400E-02  1.612E-01
   1   14    9     7     1    1.5000E+02  1.3745E+00   1.4863E+02  0.000E+00  0.000E+00  0.000E+00  1.03987E+03  2.288E+00  5.529E+01  5.593E-01  8.192E-01
   1   13    8     7     2    1.4863E+02  1.9814E+00   1.4664E+02  0.000E+00  0.000E+00  0.000E+00  1.03478E+03  2.279E+00  5.525E+01  6.147E-01  1.074E+00
   1   13    7     7     3    1.4664E+02  1.7271E+00   1.4492E+02  0.000E+00  0.000E+00  0.000E+00  1.02969E+03  2.269E+00  5.521E+01  5.584E-01  1.031E+00
   1   13    6     8     1    1.6818E+02  1.1572E+00   1.6702E+02  0.000E+00  0.000E+00  0.000E+00  1.02481E+03  2.936E+00  4.258E+01  4.339E-01  8.890E-01
   1   13    5     8     2    1.6702E+02  3.8953E-01   1.6663E+02  0.000E+00  0.000E+00  0.000E+00  1.01856E+03  2.931E+00  4.251E+01  4.331E-01  2.998E-01
   1   13    4     8     3    1.6663E+02 -1.7286E+00   1.6836E+02  0.000E+00  0.000E+00  0.000E+00  1.01231E+03  2.936E+00  4.257E+01  4.338E+00 -1.328E-01
   1   13    3     8     4    1.6836E+02 -3.2965E+00   1.7166E+02  0.000E+00  0.000E+00  0.000E+00  1.00608E+03  2.952E+00  4.281E+01  4.362E+00 -2.519E-01
   1   13    2     8     5    1.7166E+02 -2.4869E+00   1.7414E+02  0.000E+00  0.000E+00  0.000E+00  9.99846E+02  2.971E+00  4.308E+01  4.390E+00 -1.888E-01
   1   13    1     8     6    1.7414E+02 -1.9584E+00   1.7610E+02  0.000E+00  0.000E+00  0.000E+00  9.94860E+02  2.985E+00  4.329E+01  2.647E+00 -2.467E-01





UNSATURATED ZONE PACKAGE VOLUMETRIC BUDGET FOR  TIME STEP    30 STRESS PERIOD   44
  ------------------------------------------------------------------------------



     CUMULATIVE VOLUMES      L**3       RATES FOR THIS TIME STEP      L**3/T
     ------------------                 ------------------------

           IN:                                      IN:
           ---                                      ---
        INFILTRATION =  1843385490.1397          INFILTRATION =          88.3416

          OUT:                                     OUT:
          ----                                     ----
              UZF ET =  1553756994.9488                UZF ET =          60.8175
        UZF RECHARGE =   217165852.3464          UZF RECHARGE =       0.0000E+00

            IN - OUT =    72462642.8444              IN - OUT =          27.5241

          STORAGE:                                 STORAGE:
          --------                                 --------
      STORAGE CHANGE =    72462667.1550        STORAGE CHANGE =          27.5241

 PERCENT DISCREPANCY IS DIFFERENCE BETWEEN IN-OUT MINUS CHANGE IN STORAGE
 DIVIDED BY THE AVERAGE OF IN AND OUT TIMES 100

 PERCENT DISCREPANCY =           0.00     PERCENT DISCREPANCY =          -0.00






1
  VOLUMETRIC BUDGET FOR AGRICULTURAL FIELDS AT  END OF TIME STEP   30, STRESS PERIOD  44
  ------------------------------------------------------------------------------

     CUMULATIVE VOLUMES      L**3       RATES FOR THIS TIME STEP      L**3/T
     ------------------                 ------------------------

           IN:                                      IN:
           ---                                      ---
               AG WELLS  =  1747467392.0000                 AG WELLS  =          87.4941
      DIVERSION SEGMENTS =           0.0000        DIVERSION SEGMENTS =           0.0000
           GW IRRIGATION =           0.0000             GW IRRIGATION =           0.0000
           SW IRRIGATION =           0.0000             SW IRRIGATION =           0.0000
        SYSTEM LOSSES GW =           0.0000          SYSTEM LOSSES GW =           0.0000
        SYSTEM LOSSES SW =           0.0000          SYSTEM LOSSES SW =           0.0000

                TOTAL IN =  1747467392.0000                  TOTAL IN =          87.4941

          OUT:                                     OUT:
          ----                                     ----
               AG WELLS  =           0.0000                 AG WELLS  =           0.0000
      DIVERSION SEGMENTS =           0.0000        DIVERSION SEGMENTS =           0.0000
           GW IRRIGATION =  1747467392.0000             GW IRRIGATION =          87.4941
           SW IRRIGATION =           0.0000             SW IRRIGATION =           0.0000
        SYSTEM LOSSES GW =           0.0000          SYSTEM LOSSES GW =           0.0000
        SYSTEM LOSSES SW =           0.0000          SYSTEM LOSSES SW =           0.0000

               TOTAL OUT =  1747467392.0000                 TOTAL OUT =          87.4941

                IN - OUT =           0.0000                  IN - OUT =           0.0000

     PERCENT DISCREPANCY =           0.00         PERCENT DISCREPANCY =           0.00



1
  VOLUMETRIC BUDGET FOR ENTIRE MODEL AT END OF TIME STEP   30, STRESS PERIOD  44
  ------------------------------------------------------------------------------

     CUMULATIVE VOLUMES      L**3       RATES FOR THIS TIME STEP      L**3/T
     ------------------                 ------------------------

           IN:                                      IN:
           ---                                      ---
             STORAGE     =  2183199744.0000               STORAGE     =          84.6107
       CONSTANT HEAD     =           0.0000         CONSTANT HEAD     =           0.0000
     HEAD DEP BOUNDS     =    32390714.0000       HEAD DEP BOUNDS     =           0.2884
      STREAM LEAKAGE     =  1387888768.0000        STREAM LEAKAGE     =          12.3700
        UZF RECHARGE     =   217165808.0000          UZF RECHARGE     =           0.0000
               GW ET     =           0.0000                 GW ET     =           0.0000
     SURFACE LEAKAGE     =           0.0000       SURFACE LEAKAGE     =           0.0000
           AG WELLS      =           0.0000             AG WELLS      =           0.0000

                TOTAL IN =  3820644864.0000                  TOTAL IN =          97.2691

          OUT:                                     OUT:
          ----                                     ----
             STORAGE     =   877023296.0000               STORAGE     =       1.6983E-02
       CONSTANT HEAD     =           0.0000         CONSTANT HEAD     =           0.0000
     HEAD DEP BOUNDS     =    33030950.0000       HEAD DEP BOUNDS     =           0.2888
      STREAM LEAKAGE     =  1145617920.0000        STREAM LEAKAGE     =           9.4705
        UZF RECHARGE     =           0.0000          UZF RECHARGE     =           0.0000
               GW ET     =    17516202.0000                 GW ET     =           0.0000
     SURFACE LEAKAGE     =           0.0000       SURFACE LEAKAGE     =           0.0000
           AG WELLS      =  1747467392.0000             AG WELLS      =          87.4941

               TOTAL OUT =  3820655616.0000                 TOTAL OUT =          97.2704

                IN - OUT =      -10752.0000                  IN - OUT =      -1.2894E-03

     PERCENT DISCREPANCY =          -0.00         PERCENT DISCREPANCY =          -0.00






         TIME SUMMARY AT END OF TIME STEP   30 IN STRESS PERIOD   44
                    SECONDS     MINUTES      HOURS       DAYS        YEARS
                    -----------------------------------------------------------
   TIME STEP LENGTH  87667.      1461.1      24.352      1.0147     2.77799E-03
 STRESS PERIOD TIME 2.63000E+06  43833.      730.56      30.440     8.33397E-02
         TOTAL TIME 1.13175E+08 1.88626E+06  31438.      1309.9      3.5863    
1
1
                            STRESS PERIOD NO.   45, LENGTH =   2630000.    
                            -----------------------------------------------

                              NUMBER OF TIME STEPS =    30

                               MULTIPLIER FOR DELT =     1.000

                            INITIAL TIME STEP SIZE =   87666.66    

 REUSING NON-PARAMETER GHB CELLS FROM LAST STRESS PERIOD

      2 GHB CELLS

 REUSING STREAM SEGMENT DATA FROM LAST STRESS PERIOD



            AREAL INFILTRATION RATE
 READING ON UNIT   19 WITH FORMAT: (FREE)              

            1           2           3           4           5           6           7           8           9          10
 ........................................................................................................................
   1   1.0000E-10  2.0000E-10   0.000       0.000       0.000       0.000       0.000       0.000       0.000       0.000    
   2   2.0000E-10  1.0000E-10  2.0000E-10   0.000       0.000      8.0000E-10  8.0000E-10  5.0000E-10   0.000       0.000    
   3    0.000      5.0000E-10  1.0000E-10  1.0000E-10  8.0000E-10  8.0000E-10  5.0000E-10  5.0000E-10   0.000       0.000    
   4   8.0000E-10  5.0000E-10  1.0000E-10  1.0000E-10  1.0000E-10  1.0000E-10  1.0000E-10  1.0000E-10  2.0000E-10   0.000    
   5   8.0000E-10  5.0000E-10  1.0000E-10  1.0000E-10  1.0000E-10  1.0000E-10  1.0000E-10  1.0000E-10  1.0000E-10  1.0000E-10
   6   8.0000E-10  5.0000E-10  5.0000E-10  2.0000E-10  2.0000E-10  1.0000E-10  1.0000E-10  1.0000E-10  1.0000E-10  5.0000E-10
   7   8.0000E-10  5.0000E-10  5.0000E-10  2.0000E-10  2.0000E-10  1.0000E-10  1.0000E-10  2.0000E-10  2.0000E-10   0.000    
   8    0.000      5.0000E-10  5.0000E-10  2.0000E-10  2.0000E-10  1.0000E-10  1.0000E-10  2.0000E-10  5.0000E-10   0.000    
   9    0.000      5.0000E-10  5.0000E-10  2.0000E-10  2.0000E-10  1.0000E-10  1.0000E-10  2.0000E-10  5.0000E-10   0.000    
  10    0.000      5.0000E-10  5.0000E-10  2.0000E-10  2.0000E-10  1.0000E-10  1.0000E-10  2.0000E-10  5.0000E-10  8.0000E-10
  11    0.000      1.0000E-10  1.0000E-10  1.0000E-10  1.0000E-10  1.0000E-10  1.0000E-10  2.0000E-10  5.0000E-10   0.000    
  12   1.0000E-10  1.0000E-10  1.0000E-10  1.0000E-10  1.0000E-10  1.0000E-10  1.0000E-10  1.0000E-10  2.0000E-10   0.000    
  13   1.0000E-10  1.0000E-10  2.0000E-10  2.0000E-10  2.0000E-10  2.0000E-10  2.0000E-10  1.0000E-10  1.0000E-10   0.000    
  14    0.000      2.0000E-10  5.0000E-10  5.0000E-10  5.0000E-10  5.0000E-10  5.0000E-10  2.0000E-10  1.0000E-10   0.000    
  15    0.000       0.000      8.0000E-10  8.0000E-10  8.0000E-10  8.0000E-10   0.000       0.000       0.000       0.000    

                  ET RATE =  3.250000E-07

 USING ET EXTINCTION DEPTH FROM PREVIOUS STRESS PERIOD. CURRENT PERIOD IS:      45

 USING EXTINCTION WATER CONTENT FROM PREVIOUS STRESS PERIOD. CURRENT PERIOD IS:      45

 USING AIR ENTRY PRESSURE FROM PREVIOUS STRESS PERIOD. CURRENT PERIOD IS:      45

 USING ROOT PRESSURE HEAD FROM PREVIOUS STRESS PERIOD. CURRENT PERIOD IS:      45

 USING ROOT ACTIVITY FROM PREVIOUS STRESS PERIOD. CURRENT PERIOD IS:      45

 PROCESSING AG STRESS PERIOD DATA

 READING AG STRESS PERIOD DATA

 READING IRRIGATION WELL

 END PROCESSING AG STRESS PERIOD DATA OPTIONS
 
 SOLVING FOR HEAD 
                                                   Max.-Head-Change                         Max.-Flux-Residual
  Residual-Control   Outer-Iter.   Inner-Iter.     Column Row Layer    Maximum-Head-Change  Column Row Layer    Maximum-Flux-Residual          L2-NORM 
          0                 1           2             4    7     1      -0.6755333227E-01       4    7    1        -0.3579361427E+01      0.9494243183E+01
          0                 2           2             4    7     1       0.6570974265E-02       4    7    1         0.3579276183E+00      0.9494132523E+00
          0                 3           2             4    7     1      -0.4474601889E-03       4    7    1        -0.2505502476E-01      0.6645905890E-01
          0                 4           1             4    7     1       0.1780485365E-04       4    7    1         0.1024751568E-02      0.2718178347E-02

    ------------------------------------------------
       NWT REQUIRED            4 OUTER ITERATIONS 
       AND A TOTAL OF          7 INNER ITERATIONS.
    ------------------------------------------------

 NO OUTPUT CONTROL FOR STRESS PERIOD   45   TIME STEP    1
 
 SOLVING FOR HEAD 
                                                   Max.-Head-Change                         Max.-Flux-Residual
  Residual-Control   Outer-Iter.   Inner-Iter.     Column Row Layer    Maximum-Head-Change  Column Row Layer    Maximum-Flux-Residual          L2-NORM 
          0                 1           2             4    7     1      -0.6628342825E-01       4    7    1        -0.3509832666E+01      0.9368316807E+01
          0                 2           2             4    7     1       0.6447452647E-02       4    7    1         0.3509751278E+00      0.9368215361E+00
          0                 3           2             4    7     1      -0.4390487714E-03       4    7    1        -0.2456834656E-01      0.6557762989E-01
          0                 4           1             4    7     1       0.1747015572E-04       4    7    1         0.1004846418E-02      0.2682128208E-02

    ------------------------------------------------
       NWT REQUIRED            4 OUTER ITERATIONS 
       AND A TOTAL OF          7 INNER ITERATIONS.
    ------------------------------------------------

 NO OUTPUT CONTROL FOR STRESS PERIOD   45   TIME STEP    2
 
 SOLVING FOR HEAD 
                                                   Max.-Head-Change                         Max.-Flux-Residual
  Residual-Control   Outer-Iter.   Inner-Iter.     Column Row Layer    Maximum-Head-Change  Column Row Layer    Maximum-Flux-Residual          L2-NORM 
          0                 1           2             4    7     1      -0.6507846612E-01       4    7    1        -0.3443858278E+01      0.9253101325E+01
          0                 2           2             4    7     1       0.6330247872E-02       4    7    1         0.3443780572E+00      0.9253008066E+00
          0                 3           2             4    7     1      -0.4310675098E-03       4    7    1        -0.2410654793E-01      0.6477117166E-01
          0                 4           1             4    7     1       0.1715257371E-04       4    7    1         0.9859588206E-03      0.2649144498E-02

    ------------------------------------------------
       NWT REQUIRED            4 OUTER ITERATIONS 
       AND A TOTAL OF          7 INNER ITERATIONS.
    ------------------------------------------------

 NO OUTPUT CONTROL FOR STRESS PERIOD   45   TIME STEP    3
 
 SOLVING FOR HEAD 
                                                   Max.-Head-Change                         Max.-Flux-Residual
  Residual-Control   Outer-Iter.   Inner-Iter.     Column Row Layer    Maximum-Head-Change  Column Row Layer    Maximum-Flux-Residual          L2-NORM 
          0                 1           2             4    7     1      -0.6393485332E-01       4    7    1        -0.3381243961E+01      0.9147453829E+01
          0                 2           2             4    7     1       0.6219010489E-02       4    7    1         0.3381169770E+00      0.9147368015E+00
          0                 3           2             4    7     1      -0.4234926082E-03       4    7    1        -0.2366826880E-01      0.6403168292E-01
          0                 4           1             4    7     1       0.1685116182E-04       4    7    1         0.9680332164E-03      0.2618898848E-02

    ------------------------------------------------
       NWT REQUIRED            4 OUTER ITERATIONS 
       AND A TOTAL OF          7 INNER ITERATIONS.
    ------------------------------------------------

 NO OUTPUT CONTROL FOR STRESS PERIOD   45   TIME STEP    4
 
 SOLVING FOR HEAD 
                                                   Max.-Head-Change                         Max.-Flux-Residual
  Residual-Control   Outer-Iter.   Inner-Iter.     Column Row Layer    Maximum-Head-Change  Column Row Layer    Maximum-Flux-Residual          L2-NORM 
          0                 1           2             4    7     1      -0.6284953079E-01       4    7    1        -0.3321825007E+01      0.9050364916E+01
          0                 2           2             4    7     1       0.6113442939E-02       4    7    1         0.3321754169E+00      0.9050285772E+00
          0                 3           2             4    7     1      -0.4163038031E-03       4    7    1        -0.2325235623E-01      0.6335210069E-01
          0                 4           1             4    7     1       0.1656511302E-04       4    7    1         0.9510223838E-03      0.2591104273E-02

    ------------------------------------------------
       NWT REQUIRED            4 OUTER ITERATIONS 
       AND A TOTAL OF          7 INNER ITERATIONS.
    ------------------------------------------------

 NO OUTPUT CONTROL FOR STRESS PERIOD   45   TIME STEP    5
 
 SOLVING FOR HEAD 
                                                   Max.-Head-Change                         Max.-Flux-Residual
  Residual-Control   Outer-Iter.   Inner-Iter.     Column Row Layer    Maximum-Head-Change  Column Row Layer    Maximum-Flux-Residual          L2-NORM 
          0                 1           2             4    7     1      -0.6181943606E-01       4    7    1        -0.3265435612E+01      0.8960933461E+01
          0                 2           2             4    7     1       0.6013247332E-02       4    7    1         0.3265367968E+00      0.8960810246E+00
          0                 3           2             4    7     1      -0.4094808099E-03       4    7    1        -0.2285764967E-01      0.6272576595E-01
          0                 4           1             4    7     1       0.1629362003E-04       4    7    1         0.9348788763E-03      0.2565487580E-02

    ------------------------------------------------
       NWT REQUIRED            4 OUTER ITERATIONS 
       AND A TOTAL OF          7 INNER ITERATIONS.
    ------------------------------------------------

 NO OUTPUT CONTROL FOR STRESS PERIOD   45   TIME STEP    6
 
 SOLVING FOR HEAD 
                                                   Max.-Head-Change                         Max.-Flux-Residual
  Residual-Control   Outer-Iter.   Inner-Iter.     Column Row Layer    Maximum-Head-Change  Column Row Layer    Maximum-Flux-Residual          L2-NORM 
          0                 1           2             4    7     1      -0.6084164220E-01       4    7    1        -0.3211916983E+01      0.8878360202E+01
          0                 2           2             4    7     1       0.5918138964E-02       4    7    1         0.3211852380E+00      0.8878292093E+00
          0                 3           2             4    7     1      -0.4030042405E-03       4    7    1        -0.2248303751E-01      0.6214813247E-01
          0                 4           1             4    7     1       0.1603591151E-04       4    7    1         0.9195572391E-03      0.2541862016E-02

    ------------------------------------------------
       NWT REQUIRED            4 OUTER ITERATIONS 
       AND A TOTAL OF          7 INNER ITERATIONS.
    ------------------------------------------------

 NO OUTPUT CONTROL FOR STRESS PERIOD   45   TIME STEP    7
 
 SOLVING FOR HEAD 
                                                   Max.-Head-Change                         Max.-Flux-Residual
  Residual-Control   Outer-Iter.   Inner-Iter.     Column Row Layer    Maximum-Head-Change  Column Row Layer    Maximum-Flux-Residual          L2-NORM 
          0                 1           2             4    7     1      -0.5991321905E-01       4    7    1        -0.3161110172E+01      0.8801924678E+01
          0                 2           2             4    7     1       0.5827832816E-02       4    7    1         0.3161048464E+00      0.8801861092E+00
          0                 3           2             4    7     1      -0.3968546864E-03       4    7    1        -0.2212740720E-01      0.6161311203E-01
          0                 4           1             4    7     1       0.1579121527E-04       4    7    1         0.9050119525E-03      0.2519980207E-02

    ------------------------------------------------
       NWT REQUIRED            4 OUTER ITERATIONS 
       AND A TOTAL OF          7 INNER ITERATIONS.
    ------------------------------------------------

 NO OUTPUT CONTROL FOR STRESS PERIOD   45   TIME STEP    8
 
 SOLVING FOR HEAD 
                                                   Max.-Head-Change                         Max.-Flux-Residual
  Residual-Control   Outer-Iter.   Inner-Iter.     Column Row Layer    Maximum-Head-Change  Column Row Layer    Maximum-Flux-Residual          L2-NORM 
          0                 1           2             4    7     1      -0.5903163974E-01       4    7    1        -0.3112877617E+01      0.8730990975E+01
          0                 2           2             4    7     1       0.5742083098E-02       4    7    1         0.3112818660E+00      0.8730931388E+00
          0                 3           2             4    7     1      -0.3910154101E-03       4    7    1        -0.2178979582E-01      0.6111660074E-01
          0                 4           1             4    7     1       0.1555886510E-04       4    7    1         0.8912036355E-03      0.2499672431E-02

    ------------------------------------------------
       NWT REQUIRED            4 OUTER ITERATIONS 
       AND A TOTAL OF          7 INNER ITERATIONS.
    ------------------------------------------------

 NO OUTPUT CONTROL FOR STRESS PERIOD   45   TIME STEP    9
 
 SOLVING FOR HEAD 
                                                   Max.-Head-Change                         Max.-Flux-Residual
  Residual-Control   Outer-Iter.   Inner-Iter.     Column Row Layer    Maximum-Head-Change  Column Row Layer    Maximum-Flux-Residual          L2-NORM 
          0                 1           2             4    7     1      -0.5819409710E-01       4    7    1        -0.3067066749E+01      0.8664990683E+01
          0                 2           2             4    7     1       0.5660616757E-02       4    7    1         0.3067010406E+00      0.8664934673E+00
          0                 3           2             4    7     1      -0.3854678180E-03       4    7    1        -0.2146913543E-01      0.6065461983E-01
          0                 4           1             4    7     1       0.1533812151E-04       4    7    1         0.8780886192E-03      0.2480777531E-02

    ------------------------------------------------
       NWT REQUIRED            4 OUTER ITERATIONS 
       AND A TOTAL OF          7 INNER ITERATIONS.
    ------------------------------------------------

 NO OUTPUT CONTROL FOR STRESS PERIOD   45   TIME STEP   10
 
 SOLVING FOR HEAD 
                                                   Max.-Head-Change                         Max.-Flux-Residual
  Residual-Control   Outer-Iter.   Inner-Iter.     Column Row Layer    Maximum-Head-Change  Column Row Layer    Maximum-Flux-Residual          L2-NORM 
          0                 1           2             4    7     1      -0.5739831704E-01       4    7    1        -0.3023553562E+01      0.8603416109E+01
          0                 2           2             4    7     1       0.5583212590E-02       4    7    1         0.3023499700E+00      0.8603363264E+00
          0                 3           2             4    7     1      -0.3801968463E-03       4    7    1        -0.2116455800E-01      0.6022361642E-01
          0                 4           1             4    7     1       0.1512838423E-04       4    7    1         0.8656313817E-03      0.2463148510E-02

    ------------------------------------------------
       NWT REQUIRED            4 OUTER ITERATIONS 
       AND A TOTAL OF          7 INNER ITERATIONS.
    ------------------------------------------------

 NO OUTPUT CONTROL FOR STRESS PERIOD   45   TIME STEP   11
 
 SOLVING FOR HEAD 
                                                   Max.-Head-Change                         Max.-Flux-Residual
  Residual-Control   Outer-Iter.   Inner-Iter.     Column Row Layer    Maximum-Head-Change  Column Row Layer    Maximum-Flux-Residual          L2-NORM 
          0                 1           2             4    7     1      -0.5664187604E-01       4    7    1        -0.2982205778E+01      0.8545824257E+01
          0                 2           2             4    7     1       0.5509634864E-02       4    7    1         0.2982154271E+00      0.8545774245E+00
          0                 3           2             4    7     1      -0.3751864434E-03       4    7    1        -0.2087513766E-01      0.5982049026E-01
          0                 4           1             4    7     1       0.1492901604E-04       4    7    1         0.8537940864E-03      0.2446661405E-02

    ------------------------------------------------
       NWT REQUIRED            4 OUTER ITERATIONS 
       AND A TOTAL OF          7 INNER ITERATIONS.
    ------------------------------------------------

 NO OUTPUT CONTROL FOR STRESS PERIOD   45   TIME STEP   12
 
 SOLVING FOR HEAD 
                                                   Max.-Head-Change                         Max.-Flux-Residual
  Residual-Control   Outer-Iter.   Inner-Iter.     Column Row Layer    Maximum-Head-Change  Column Row Layer    Maximum-Flux-Residual          L2-NORM 
          0                 1           2             4    7     1      -0.5592247411E-01       4    7    1        -0.2942897739E+01      0.8491805349E+01
          0                 2           2             4    7     1       0.5439659858E-02       4    7    1         0.2942848465E+00      0.8491757865E+00
          0                 3           2             4    7     1      -0.3704213736E-03       4    7    1        -0.2059999477E-01      0.5944237330E-01
          0                 4           1             4    7     1       0.1473940975E-04       4    7    1         0.8425407339E-03      0.2431196167E-02

    ------------------------------------------------
       NWT REQUIRED            4 OUTER ITERATIONS 
       AND A TOTAL OF          7 INNER ITERATIONS.
    ------------------------------------------------

 NO OUTPUT CONTROL FOR STRESS PERIOD   45   TIME STEP   13
 
 SOLVING FOR HEAD 
                                                   Max.-Head-Change                         Max.-Flux-Residual
  Residual-Control   Outer-Iter.   Inner-Iter.     Column Row Layer    Maximum-Head-Change  Column Row Layer    Maximum-Flux-Residual          L2-NORM 
          0                 1           2             4    7     1      -0.5523818976E-01       4    7    1        -0.2905524546E+01      0.8441017487E+01
          0                 2           2             4    7     1       0.5373100670E-02       4    7    1         0.2905477387E+00      0.8440972252E+00
          0                 3           2             4    7     1      -0.3658889104E-03       4    7    1        -0.2033839511E-01      0.5908687073E-01
          0                 4           1             4    7     1       0.1455905914E-04       4    7    1         0.8318413247E-03      0.2416655854E-02

    ------------------------------------------------
       NWT REQUIRED            4 OUTER ITERATIONS 
       AND A TOTAL OF          7 INNER ITERATIONS.
    ------------------------------------------------

 NO OUTPUT CONTROL FOR STRESS PERIOD   45   TIME STEP   14
 
 SOLVING FOR HEAD 
                                                   Max.-Head-Change                         Max.-Flux-Residual
  Residual-Control   Outer-Iter.   Inner-Iter.     Column Row Layer    Maximum-Head-Change  Column Row Layer    Maximum-Flux-Residual          L2-NORM 
          0                 1           2             4    7     1      -0.5458694692E-01       4    7    1        -0.2869972212E+01      0.8393133121E+01
          0                 2           2             4    7     1       0.5309755363E-02       4    7    1         0.2869927056E+00      0.8393089922E+00
          0                 3           2             4    7     1      -0.3615753018E-03       4    7    1        -0.2008954079E-01      0.5875169397E-01
          0                 4           1             4    7     1       0.1438741678E-04       4    7    1         0.8216631727E-03      0.2402947220E-02

    ------------------------------------------------
       NWT REQUIRED            4 OUTER ITERATIONS 
       AND A TOTAL OF          7 INNER ITERATIONS.
    ------------------------------------------------

 NO OUTPUT CONTROL FOR STRESS PERIOD   45   TIME STEP   15
 
 SOLVING FOR HEAD 
                                                   Max.-Head-Change                         Max.-Flux-Residual
  Residual-Control   Outer-Iter.   Inner-Iter.     Column Row Layer    Maximum-Head-Change  Column Row Layer    Maximum-Flux-Residual          L2-NORM 
          0                 1           2             4    7     1      -0.5396677150E-01       4    7    1        -0.2836133091E+01      0.8347875865E+01
          0                 2           2             4    7     1       0.5249431916E-02       4    7    1         0.2836089832E+00      0.8347834476E+00
          0                 3           2             4    7     1      -0.3574674718E-03       4    7    1        -0.1985267832E-01      0.5843490322E-01
          0                 4           1             4    7     1       0.1422396195E-04       4    7    1         0.8119754746E-03      0.2389990564E-02

    ------------------------------------------------
       NWT REQUIRED            4 OUTER ITERATIONS 
       AND A TOTAL OF          7 INNER ITERATIONS.
    ------------------------------------------------

 NO OUTPUT CONTROL FOR STRESS PERIOD   45   TIME STEP   16
 
 SOLVING FOR HEAD 
                                                   Max.-Head-Change                         Max.-Flux-Residual
  Residual-Control   Outer-Iter.   Inner-Iter.     Column Row Layer    Maximum-Head-Change  Column Row Layer    Maximum-Flux-Residual          L2-NORM 
          0                 1           2             4    7     1      -0.5337593217E-01       4    7    1        -0.2803912003E+01      0.8304989461E+01
          0                 2           2             4    7     1       0.5191961927E-02       4    7    1         0.2803870538E+00      0.8304949681E+00
          0                 3           2             4    7     1      -0.3535539539E-03       4    7    1        -0.1962714148E-01      0.5813470690E-01
          0                 4           1             4    7     1       0.1406823990E-04       4    7    1         0.8027510280E-03      0.2377718432E-02

    ------------------------------------------------
       NWT REQUIRED            4 OUTER ITERATIONS 
       AND A TOTAL OF          7 INNER ITERATIONS.
    ------------------------------------------------

 NO OUTPUT CONTROL FOR STRESS PERIOD   45   TIME STEP   17
 
 SOLVING FOR HEAD 
                                                   Max.-Head-Change                         Max.-Flux-Residual
  Residual-Control   Outer-Iter.   Inner-Iter.     Column Row Layer    Maximum-Head-Change  Column Row Layer    Maximum-Flux-Residual          L2-NORM 
          0                 1           2             4    7     1      -0.5281266434E-01       4    7    1        -0.2773212002E+01      0.8264251511E+01
          0                 2           2             4    7     1       0.5137173755E-02       4    7    1         0.2773172233E+00      0.8264213194E+00
          0                 3           2             4    7     1      -0.3498230589E-03       4    7    1        -0.1941225165E-01      0.5784955028E-01
          0                 4           1             4    7     1       0.1391978447E-04       4    7    1         0.7939620402E-03      0.2366050189E-02

    ------------------------------------------------
       NWT REQUIRED            4 OUTER ITERATIONS 
       AND A TOTAL OF          7 INNER ITERATIONS.
    ------------------------------------------------

 NO OUTPUT CONTROL FOR STRESS PERIOD   45   TIME STEP   18
 
 SOLVING FOR HEAD 
                                                   Max.-Head-Change                         Max.-Flux-Residual
  Residual-Control   Outer-Iter.   Inner-Iter.     Column Row Layer    Maximum-Head-Change  Column Row Layer    Maximum-Flux-Residual          L2-NORM 
          0                 1           2             4    7     1      -0.5227542845E-01       4    7    1        -0.2743948769E+01      0.8225466679E+01
          0                 2           2             4    7     1       0.5084917649E-02       4    7    1         0.2743910602E+00      0.8225429693E+00
          0                 3           2             4    7     1      -0.3462645894E-03       4    7    1        -0.1920741863E-01      0.5757806507E-01
          0                 4           1             4    7     1       0.1377818961E-04       4    7    1         0.7855843635E-03      0.2354945869E-02

    ------------------------------------------------
       NWT REQUIRED            4 OUTER ITERATIONS 
       AND A TOTAL OF          7 INNER ITERATIONS.
    ------------------------------------------------

 NO OUTPUT CONTROL FOR STRESS PERIOD   45   TIME STEP   19
 
 SOLVING FOR HEAD 
                                                   Max.-Head-Change                         Max.-Flux-Residual
  Residual-Control   Outer-Iter.   Inner-Iter.     Column Row Layer    Maximum-Head-Change  Column Row Layer    Maximum-Flux-Residual          L2-NORM 
          0                 1           2             4    7     1      -0.5176250583E-01       4    7    1        -0.2716028127E+01      0.8188444331E+01
          0                 2           2             4    7     1       0.5035026436E-02       4    7    1         0.2715991475E+00      0.8188408515E+00
          0                 3           2             4    7     1      -0.3428671613E-03       4    7    1        -0.1901198322E-01      0.5731891379E-01
          0                 4           1             4    7     1       0.1364300287E-04       4    7    1         0.7775910383E-03      0.2344346601E-02

    ------------------------------------------------
       NWT REQUIRED            4 OUTER ITERATIONS 
       AND A TOTAL OF          7 INNER ITERATIONS.
    ------------------------------------------------

 NO OUTPUT CONTROL FOR STRESS PERIOD   45   TIME STEP   20
 
 SOLVING FOR HEAD 
                                                   Max.-Head-Change                         Max.-Flux-Residual
  Residual-Control   Outer-Iter.   Inner-Iter.     Column Row Layer    Maximum-Head-Change  Column Row Layer    Maximum-Flux-Residual          L2-NORM 
          0                 1           2             4    7     1      -0.5127267560E-01       4    7    1        -0.2689382484E+01      0.8153038640E+01
          0                 2           2             4    7     1       0.4987381362E-02       4    7    1         0.2689347262E+00      0.8153003904E+00
          0                 3           2             4    7     1      -0.3396226878E-03       4    7    1        -0.1882547228E-01      0.5707108188E-01
          0                 4           1             4    7     1       0.1351390200E-04       4    7    1         0.7699627306E-03      0.2334209926E-02

    ------------------------------------------------
       NWT REQUIRED            4 OUTER ITERATIONS 
       AND A TOTAL OF          7 INNER ITERATIONS.
    ------------------------------------------------

 NO OUTPUT CONTROL FOR STRESS PERIOD   45   TIME STEP   21
 
 SOLVING FOR HEAD 
                                                   Max.-Head-Change                         Max.-Flux-Residual
  Residual-Control   Outer-Iter.   Inner-Iter.     Column Row Layer    Maximum-Head-Change  Column Row Layer    Maximum-Flux-Residual          L2-NORM 
          0                 1           2             4    7     1      -0.5080451992E-01       4    7    1        -0.2663934189E+01      0.8119088941E+01
          0                 2           2             4    7     1       0.4941844518E-02       4    7    1         0.2663900318E+00      0.8119055145E+00
          0                 3           2             4    7     1      -0.3365217793E-03       4    7    1        -0.1864734233E-01      0.5683343373E-01
          0                 4           1             4    7     1       0.1339051422E-04       4    7    1         0.7626772151E-03      0.2324491025E-02

    ------------------------------------------------
       NWT REQUIRED            4 OUTER ITERATIONS 
       AND A TOTAL OF          7 INNER ITERATIONS.
    ------------------------------------------------

 NO OUTPUT CONTROL FOR STRESS PERIOD   45   TIME STEP   22
 
 SOLVING FOR HEAD 
                                                   Max.-Head-Change                         Max.-Flux-Residual
  Residual-Control   Outer-Iter.   Inner-Iter.     Column Row Layer    Maximum-Head-Change  Column Row Layer    Maximum-Flux-Residual          L2-NORM 
          0                 1           2             4    7     1      -0.5035670840E-01       4    7    1        -0.2639609728E+01      0.8086485539E+01
          0                 2           2             4    7     1       0.4898286498E-02       4    7    1         0.2639577131E+00      0.8086452666E+00
          0                 3           2             4    7     1      -0.3335556217E-03       4    7    1        -0.1847707875E-01      0.5660522156E-01
          0                 4           1             4    7     1       0.1327248817E-04       4    7    1         0.7557134322E-03      0.2315157993E-02

    ------------------------------------------------
       NWT REQUIRED            4 OUTER ITERATIONS 
       AND A TOTAL OF          7 INNER ITERATIONS.
    ------------------------------------------------

 NO OUTPUT CONTROL FOR STRESS PERIOD   45   TIME STEP   23
 
 SOLVING FOR HEAD 
                                                   Max.-Head-Change                         Max.-Flux-Residual
  Residual-Control   Outer-Iter.   Inner-Iter.     Column Row Layer    Maximum-Head-Change  Column Row Layer    Maximum-Flux-Residual          L2-NORM 
          0                 1           2             4    7     1      -0.4992798071E-01       4    7    1        -0.2616340120E+01      0.8055103965E+01
          0                 2           2             4    7     1       0.4856584712E-02       4    7    1         0.2616308726E+00      0.8055071898E+00
          0                 3           2             4    7     1      -0.3307158677E-03       4    7    1        -0.1831419869E-01      0.5638555346E-01
          0                 4           1             4    7     1       0.1315949193E-04       4    7    1         0.7490516439E-03      0.2306172253E-02

    ------------------------------------------------
       NWT REQUIRED            4 OUTER ITERATIONS 
       AND A TOTAL OF          7 INNER ITERATIONS.
    ------------------------------------------------

 NO OUTPUT CONTROL FOR STRESS PERIOD   45   TIME STEP   24
 
 SOLVING FOR HEAD 
                                                   Max.-Head-Change                         Max.-Flux-Residual
  Residual-Control   Outer-Iter.   Inner-Iter.     Column Row Layer    Maximum-Head-Change  Column Row Layer    Maximum-Flux-Residual          L2-NORM 
          0                 1           2             4    7     1      -0.4951715835E-01       4    7    1        -0.2594060017E+01      0.8024847204E+01
          0                 2           2             4    7     1       0.4816624530E-02       4    7    1         0.2594029758E+00      0.8024815880E+00
          0                 3           2             4    7     1      -0.3279947114E-03       4    7    1        -0.1815824478E-01      0.5617376155E-01
          0                 4           1             4    7     1       0.1305121465E-04       4    7    1         0.7426731156E-03      0.2297509869E-02

    ------------------------------------------------
       NWT REQUIRED            4 OUTER ITERATIONS 
       AND A TOTAL OF          7 INNER ITERATIONS.
    ------------------------------------------------

 NO OUTPUT CONTROL FOR STRESS PERIOD   45   TIME STEP   25
 
 SOLVING FOR HEAD 
                                                   Max.-Head-Change                         Max.-Flux-Residual
  Residual-Control   Outer-Iter.   Inner-Iter.     Column Row Layer    Maximum-Head-Change  Column Row Layer    Maximum-Flux-Residual          L2-NORM 
          0                 1           2             4    7     1      -0.4912339118E-01       4    7    1        -0.2572722650E+01      0.7995611899E+01
          0                 2           2             4    7     1       0.4778323260E-02       4    7    1         0.2572693461E+00      0.7995581251E+00
          0                 3           2             4    7     1      -0.3253865220E-03       4    7    1        -0.1800888963E-01      0.5596911817E-01
          0                 4           1             4    7     1       0.1294743241E-04       4    7    1         0.7365644894E-03      0.2289144502E-02

    ------------------------------------------------
       NWT REQUIRED            4 OUTER ITERATIONS 
       AND A TOTAL OF          7 INNER ITERATIONS.
    ------------------------------------------------

 NO OUTPUT CONTROL FOR STRESS PERIOD   45   TIME STEP   26
 
 SOLVING FOR HEAD 
                                                   Max.-Head-Change                         Max.-Flux-Residual
  Residual-Control   Outer-Iter.   Inner-Iter.     Column Row Layer    Maximum-Head-Change  Column Row Layer    Maximum-Flux-Residual          L2-NORM 
          0                 1           2             4    7     1      -0.4874535607E-01       4    7    1        -0.2552255266E+01      0.7967329582E+01
          0                 2           2             4    7     1       0.4741552204E-02       4    7    1         0.2552227086E+00      0.7967299567E+00
          0                 3           2             4    7     1      -0.3228825350E-03       4    7    1        -0.1786562399E-01      0.5577114581E-01
          0                 4           1             4    7     1       0.1284779627E-04       4    7    1         0.7307049125E-03      0.2281042785E-02

    ------------------------------------------------
       NWT REQUIRED            4 OUTER ITERATIONS 
       AND A TOTAL OF          7 INNER ITERATIONS.
    ------------------------------------------------

 NO OUTPUT CONTROL FOR STRESS PERIOD   45   TIME STEP   27
 
 SOLVING FOR HEAD 
                                                   Max.-Head-Change                         Max.-Flux-Residual
  Residual-Control   Outer-Iter.   Inner-Iter.     Column Row Layer    Maximum-Head-Change  Column Row Layer    Maximum-Flux-Residual          L2-NORM 
          0                 1           2             4    7     1      -0.4838233262E-01       4    7    1        -0.2532617932E+01      0.7939915669E+01
          0                 2           2             4    7     1       0.4706241291E-02       4    7    1         0.2532590704E+00      0.7939886216E+00
          0                 3           2             4    7     1      -0.3204779791E-03       4    7    1        -0.1772816833E-01      0.5557925130E-01
          0                 4           1             4    7     1       0.1275211717E-04       4    7    1         0.7250829808E-03      0.2273194589E-02

    ------------------------------------------------
       NWT REQUIRED            4 OUTER ITERATIONS 
       AND A TOTAL OF          7 INNER ITERATIONS.
    ------------------------------------------------

 NO OUTPUT CONTROL FOR STRESS PERIOD   45   TIME STEP   28
 
 SOLVING FOR HEAD 
                                                   Max.-Head-Change                         Max.-Flux-Residual
  Residual-Control   Outer-Iter.   Inner-Iter.     Column Row Layer    Maximum-Head-Change  Column Row Layer    Maximum-Flux-Residual          L2-NORM 
          0                 1           2             4    7     1      -0.4803338785E-01       4    7    1        -0.2513758958E+01      0.7913319168E+01
          0                 2           2             4    7     1       0.4672299772E-02       4    7    1         0.2513732627E+00      0.7913290214E+00
          0                 3           2             4    7     1      -0.3181666754E-03       4    7    1        -0.1759616091E-01      0.5539307772E-01
          0                 4           1             4    7     1       0.1266014818E-04       4    7    1         0.7196838726E-03      0.2265578888E-02

    ------------------------------------------------
       NWT REQUIRED            4 OUTER ITERATIONS 
       AND A TOTAL OF          7 INNER ITERATIONS.
    ------------------------------------------------

 NO OUTPUT CONTROL FOR STRESS PERIOD   45   TIME STEP   29
 
 SOLVING FOR HEAD 
                                                   Max.-Head-Change                         Max.-Flux-Residual
  Residual-Control   Outer-Iter.   Inner-Iter.     Column Row Layer    Maximum-Head-Change  Column Row Layer    Maximum-Flux-Residual          L2-NORM 
          0                 1           2             4    7     1      -0.4769763728E-01       4    7    1        -0.2495629970E+01      0.7887456483E+01
          0                 2           2             4    7     1       0.4639641616E-02       4    7    1         0.2495604485E+00      0.7887428014E+00
          0                 3           2             4    7     1      -0.3159427641E-03       4    7    1        -0.1746926306E-01      0.5521204243E-01
          0                 4           1             4    7     1       0.1257165685E-04       4    7    1         0.7144937476E-03      0.2258175351E-02

    ------------------------------------------------
       NWT REQUIRED            4 OUTER ITERATIONS 
       AND A TOTAL OF          7 INNER ITERATIONS.
    ------------------------------------------------

 NO OUTPUT CONTROL FOR STRESS PERIOD   45   TIME STEP   30



 STREAM LISTING     PERIOD     45   STEP       30

 LAYER ROW COL. STREAM  RCH.  FLOW INTO     FLOW TO   FLOW OUT OF   OVRLND.     DIRECT     STREAM       STREAM     STREAM     STREAM   STREAMBED  STREAMBED
                SEG.NO.  NO.  STRM. RCH.    AQUIFER    STRM. RCH.    RUNOFF     PRECIP       ET          HEAD       DEPTH      WIDTH   CONDCTNC.   GRADIENT

   1    1    1     1     1    1.9000E+01  2.1427E-01   1.8786E+01  0.000E+00  0.000E+00  0.000E+00  1.09413E+03  1.082E+00  1.166E+01  5.249E-02  1.361E+00
   1    2    2     1     2    1.8786E+01  3.3054E-01   1.8455E+01  0.000E+00  0.000E+00  0.000E+00  1.08914E+03  1.077E+00  1.158E+01  8.107E-02  1.359E+00
   1    3    3     1     3    1.8455E+01  2.8064E-01   1.8175E+01  0.000E+00  0.000E+00  0.000E+00  1.08349E+03  1.072E+00  1.149E+01  6.892E-02  1.357E+00
   1    3    4     1     4    1.8175E+01  2.5740E-01   1.7917E+01  0.000E+00  0.000E+00  0.000E+00  1.07848E+03  1.068E+00  1.140E+01  6.328E-02  1.356E+00
   1    4    5     2     1    1.5917E+01  3.0542E-01   1.5612E+01  0.000E+00  0.000E+00  0.000E+00  1.07285E+03  9.157E-01  1.200E+01  7.800E-02  1.305E+00
   1    5    6     2     2    1.5612E+01  2.3438E-01   1.5377E+01  0.000E+00  0.000E+00  0.000E+00  1.06742E+03  9.063E-01  1.200E+01  6.000E-02  1.302E+00
   1    6    6     2     3    1.5377E+01  2.3388E-01   1.5143E+01  0.000E+00  0.000E+00  0.000E+00  1.06269E+03  8.980E-01  1.200E+01  6.000E-02  1.299E+00
   1    7    6     2     4    1.5143E+01  2.3338E-01   1.4910E+01  0.000E+00  0.000E+00  0.000E+00  1.05797E+03  8.897E-01  1.200E+01  6.000E-02  1.297E+00
   1    8    6     2     5    1.4910E+01  2.3289E-01   1.4677E+01  0.000E+00  0.000E+00  0.000E+00  1.05324E+03  8.814E-01  1.200E+01  6.000E-02  1.294E+00
   1    3    5     3     1    2.0000E+00  2.8252E-01   1.7175E+00  0.000E+00  0.000E+00  0.000E+00  1.07555E+03  1.909E+00  9.636E+00  7.227E-02  1.955E+00
   1    3    6     3     2    1.7175E+00  2.4905E-01   1.4684E+00  0.000E+00  0.000E+00  0.000E+00  1.07264E+03  1.727E+00  8.909E+00  6.682E-02  1.864E+00
   1    3    7     3     3    1.4684E+00  1.9718E-01   1.2712E+00  0.000E+00  0.000E+00  0.000E+00  1.06987E+03  1.555E+00  8.218E+00  5.547E-02  1.777E+00
   1    4    8     3     4    1.2712E+00  2.2567E-01   1.0456E+00  0.000E+00  0.000E+00  0.000E+00  1.06682E+03  1.364E+00  7.455E+00  6.709E-02  1.682E+00
   1    5    8     3     5    1.0456E+00  1.5790E-01   8.8768E-01  0.000E+00  0.000E+00  0.000E+00  1.06362E+03  1.164E+00  6.655E+00  4.991E-02  1.582E+00
   1    6    8     3     6    8.8768E-01  5.5980E-02   8.3170E-01  0.000E+00  0.000E+00  0.000E+00  1.06158E+03  1.036E+00  6.145E+00  1.844E-02  1.518E+00
   1    5   10     4     1    1.0000E+01  9.0919E-02   9.9091E+00  0.000E+00  0.000E+00  0.000E+00  1.07836E+03  6.368E-01  1.000E+01  2.500E-02  1.212E+00
   1    5    9     4     2    9.9091E+00  1.8158E-01   9.7275E+00  0.000E+00  0.000E+00  0.000E+00  1.07154E+03  6.315E-01  1.000E+01  5.000E-02  1.211E+00
   1    6    8     4     3    9.7275E+00  1.2689E-01   9.6006E+00  0.000E+00  0.000E+00  0.000E+00  1.06381E+03  6.256E-01  1.000E+01  3.500E-02  1.209E+00
   1    6    8     5     1    1.0432E+01  2.2686E-01   1.0205E+01  0.000E+00  0.000E+00  0.000E+00  1.05868E+03  6.790E-01  1.542E+01  6.166E-02  1.226E+00
   1    7    7     5     2    1.0205E+01  2.7894E-01   9.9265E+00  0.000E+00  0.000E+00  0.000E+00  1.05417E+03  6.732E-01  1.519E+01  7.594E-02  1.224E+00
   1    8    7     5     3    9.9265E+00  1.9221E-01   9.7343E+00  0.000E+00  0.000E+00  0.000E+00  1.04992E+03  6.676E-01  1.497E+01  5.241E-02  1.223E+00
   1    8    6     5     4    9.7343E+00  1.3577E-01   9.5985E+00  0.000E+00  0.000E+00  0.000E+00  1.04691E+03  6.637E-01  1.482E+01  3.706E-02  1.221E+00
   1    9    6     6     1    2.4276E+01  2.5176E-01   2.4024E+01  0.000E+00  0.000E+00  0.000E+00  1.04392E+03  1.196E+00  1.200E+01  6.000E-02  1.399E+00
   1   10    7     6     2    2.4024E+01  2.5131E-01   2.3773E+01  0.000E+00  0.000E+00  0.000E+00  1.03937E+03  1.188E+00  1.200E+01  6.000E-02  1.396E+00
   1   11    7     6     3    2.3773E+01  2.5086E-01   2.3522E+01  0.000E+00  0.000E+00  0.000E+00  1.03482E+03  1.181E+00  1.200E+01  6.000E-02  1.394E+00
   1   12    7     6     4    2.3522E+01  2.5041E-01   2.3271E+01  0.000E+00  0.000E+00  0.000E+00  1.03026E+03  1.173E+00  1.200E+01  6.000E-02  1.391E+00
   1   13    7     6     5    2.3271E+01  1.1782E-02   2.3260E+01  0.000E+00  0.000E+00  0.000E+00  1.02708E+03  1.169E+00  1.200E+01  2.400E-02  1.636E-01
   1   14    9     7     1    1.5000E+02  1.3766E+00   1.4862E+02  0.000E+00  0.000E+00  0.000E+00  1.03987E+03  2.288E+00  5.529E+01  5.593E-01  8.204E-01
   1   13    8     7     2    1.4862E+02  1.9857E+00   1.4664E+02  0.000E+00  0.000E+00  0.000E+00  1.03478E+03  2.279E+00  5.525E+01  6.147E-01  1.077E+00
   1   13    7     7     3    1.4664E+02  1.7312E+00   1.4491E+02  0.000E+00  0.000E+00  0.000E+00  1.02969E+03  2.269E+00  5.521E+01  5.584E-01  1.033E+00
   1   13    6     8     1    1.6817E+02  1.1602E+00   1.6701E+02  0.000E+00  0.000E+00  0.000E+00  1.02481E+03  2.936E+00  4.258E+01  4.339E-01  8.914E-01
   1   13    5     8     2    1.6701E+02  3.9228E-01   1.6661E+02  0.000E+00  0.000E+00  0.000E+00  1.01856E+03  2.931E+00  4.250E+01  4.331E-01  3.019E-01
   1   13    4     8     3    1.6661E+02 -1.7184E+00   1.6833E+02  0.000E+00  0.000E+00  0.000E+00  1.01231E+03  2.936E+00  4.257E+01  4.338E+00 -1.321E-01
   1   13    3     8     4    1.6833E+02 -3.2929E+00   1.7162E+02  0.000E+00  0.000E+00  0.000E+00  1.00608E+03  2.952E+00  4.280E+01  4.362E+00 -2.516E-01
   1   13    2     8     5    1.7162E+02 -2.4853E+00   1.7411E+02  0.000E+00  0.000E+00  0.000E+00  9.99846E+02  2.971E+00  4.308E+01  4.390E+00 -1.887E-01
   1   13    1     8     6    1.7411E+02 -1.9577E+00   1.7607E+02  0.000E+00  0.000E+00  0.000E+00  9.94860E+02  2.985E+00  4.328E+01  2.646E+00 -2.466E-01





UNSATURATED ZONE PACKAGE VOLUMETRIC BUDGET FOR  TIME STEP    30 STRESS PERIOD   45
  ------------------------------------------------------------------------------



     CUMULATIVE VOLUMES      L**3       RATES FOR THIS TIME STEP      L**3/T
     ------------------                 ------------------------

           IN:                                      IN:
           ---                                      ---
        INFILTRATION =  1973748007.5161          INFILTRATION =          49.5675

          OUT:                                     OUT:
          ----                                     ----
              UZF ET =  1684119512.3252                UZF ET =          49.5675
        UZF RECHARGE =   217165852.3464          UZF RECHARGE =       0.0000E+00

            IN - OUT =    72462642.8444              IN - OUT =       0.0000E+00

          STORAGE:                                 STORAGE:
          --------                                 --------
      STORAGE CHANGE =    72462667.1550        STORAGE CHANGE =       7.1745E-14

 PERCENT DISCREPANCY IS DIFFERENCE BETWEEN IN-OUT MINUS CHANGE IN STORAGE
 DIVIDED BY THE AVERAGE OF IN AND OUT TIMES 100

 PERCENT DISCREPANCY =           0.00     PERCENT DISCREPANCY =           0.00






1
  VOLUMETRIC BUDGET FOR AGRICULTURAL FIELDS AT  END OF TIME STEP   30, STRESS PERIOD  45
  ------------------------------------------------------------------------------

     CUMULATIVE VOLUMES      L**3       RATES FOR THIS TIME STEP      L**3/T
     ------------------                 ------------------------

           IN:                                      IN:
           ---                                      ---
               AG WELLS  =  1875600512.0000                 AG WELLS  =          48.7200
      DIVERSION SEGMENTS =           0.0000        DIVERSION SEGMENTS =           0.0000
           GW IRRIGATION =           0.0000             GW IRRIGATION =           0.0000
           SW IRRIGATION =           0.0000             SW IRRIGATION =           0.0000
        SYSTEM LOSSES GW =           0.0000          SYSTEM LOSSES GW =           0.0000
        SYSTEM LOSSES SW =           0.0000          SYSTEM LOSSES SW =           0.0000

                TOTAL IN =  1875600512.0000                  TOTAL IN =          48.7200

          OUT:                                     OUT:
          ----                                     ----
               AG WELLS  =           0.0000                 AG WELLS  =           0.0000
      DIVERSION SEGMENTS =           0.0000        DIVERSION SEGMENTS =           0.0000
           GW IRRIGATION =  1875600512.0000             GW IRRIGATION =          48.7200
           SW IRRIGATION =           0.0000             SW IRRIGATION =           0.0000
        SYSTEM LOSSES GW =           0.0000          SYSTEM LOSSES GW =           0.0000
        SYSTEM LOSSES SW =           0.0000          SYSTEM LOSSES SW =           0.0000

               TOTAL OUT =  1875600512.0000                 TOTAL OUT =          48.7200

                IN - OUT =           0.0000                  IN - OUT =           0.0000

     PERCENT DISCREPANCY =           0.00         PERCENT DISCREPANCY =           0.00



1
  VOLUMETRIC BUDGET FOR ENTIRE MODEL AT END OF TIME STEP   30, STRESS PERIOD  45
  ------------------------------------------------------------------------------

     CUMULATIVE VOLUMES      L**3       RATES FOR THIS TIME STEP      L**3/T
     ------------------                 ------------------------

           IN:                                      IN:
           ---                                      ---
             STORAGE     =  2303709184.0000               STORAGE     =          45.8032
       CONSTANT HEAD     =           0.0000         CONSTANT HEAD     =           0.0000
     HEAD DEP BOUNDS     =    33149378.0000       HEAD DEP BOUNDS     =           0.2885
      STREAM LEAKAGE     =  1420443776.0000        STREAM LEAKAGE     =          12.3863
        UZF RECHARGE     =   217165808.0000          UZF RECHARGE     =           0.0000
               GW ET     =           0.0000                 GW ET     =           0.0000
     SURFACE LEAKAGE     =           0.0000       SURFACE LEAKAGE     =           0.0000
           AG WELLS      =           0.0000             AG WELLS      =           0.0000

                TOTAL IN =  3974468096.0000                  TOTAL IN =          58.4781

          OUT:                                     OUT:
          ----                                     ----
             STORAGE     =   877065216.0000               STORAGE     =       1.5230E-02
       CONSTANT HEAD     =           0.0000         CONSTANT HEAD     =           0.0000
     HEAD DEP BOUNDS     =    33790472.0000       HEAD DEP BOUNDS     =           0.2888
      STREAM LEAKAGE     =  1170506368.0000        STREAM LEAKAGE     =           9.4542
        UZF RECHARGE     =           0.0000          UZF RECHARGE     =           0.0000
               GW ET     =    17516202.0000                 GW ET     =           0.0000
     SURFACE LEAKAGE     =           0.0000       SURFACE LEAKAGE     =           0.0000
           AG WELLS      =  1875600512.0000             AG WELLS      =          48.7200

               TOTAL OUT =  3974478848.0000                 TOTAL OUT =          58.4783

                IN - OUT =      -10752.0000                  IN - OUT =      -1.6403E-04

     PERCENT DISCREPANCY =          -0.00         PERCENT DISCREPANCY =          -0.00






         TIME SUMMARY AT END OF TIME STEP   30 IN STRESS PERIOD   45
                    SECONDS     MINUTES      HOURS       DAYS        YEARS
                    -----------------------------------------------------------
   TIME STEP LENGTH  87667.      1461.1      24.352      1.0147     2.77799E-03
 STRESS PERIOD TIME 2.63000E+06  43833.      730.56      30.440     8.33397E-02
         TOTAL TIME 1.15805E+08 1.93009E+06  32168.      1340.3      3.6696    
1
1
                            STRESS PERIOD NO.   46, LENGTH =   2630000.    
                            -----------------------------------------------

                              NUMBER OF TIME STEPS =    30

                               MULTIPLIER FOR DELT =     1.000

                            INITIAL TIME STEP SIZE =   87666.66    

 REUSING NON-PARAMETER GHB CELLS FROM LAST STRESS PERIOD

      2 GHB CELLS

 REUSING STREAM SEGMENT DATA FROM LAST STRESS PERIOD



            AREAL INFILTRATION RATE
 READING ON UNIT   19 WITH FORMAT: (FREE)              

            1           2           3           4           5           6           7           8           9          10
 ........................................................................................................................
   1   1.0000E-10  2.0000E-10   0.000       0.000       0.000       0.000       0.000       0.000       0.000       0.000    
   2   2.0000E-10  1.0000E-10  2.0000E-10   0.000       0.000      8.0000E-10  8.0000E-10  5.0000E-10   0.000       0.000    
   3    0.000      5.0000E-10  1.0000E-10  1.0000E-10  8.0000E-10  8.0000E-10  5.0000E-10  5.0000E-10   0.000       0.000    
   4   8.0000E-10  5.0000E-10  1.0000E-10  1.0000E-10  1.0000E-10  1.0000E-10  1.0000E-10  1.0000E-10  2.0000E-10   0.000    
   5   8.0000E-10  5.0000E-10  1.0000E-10  1.0000E-10  1.0000E-10  1.0000E-10  1.0000E-10  1.0000E-10  1.0000E-10  1.0000E-10
   6   8.0000E-10  5.0000E-10  5.0000E-10  2.0000E-10  2.0000E-10  1.0000E-10  1.0000E-10  1.0000E-10  1.0000E-10  5.0000E-10
   7   8.0000E-10  5.0000E-10  5.0000E-10  2.0000E-10  2.0000E-10  1.0000E-10  1.0000E-10  2.0000E-10  2.0000E-10   0.000    
   8    0.000      5.0000E-10  5.0000E-10  2.0000E-10  2.0000E-10  1.0000E-10  1.0000E-10  2.0000E-10  5.0000E-10   0.000    
   9    0.000      5.0000E-10  5.0000E-10  2.0000E-10  2.0000E-10  1.0000E-10  1.0000E-10  2.0000E-10  5.0000E-10   0.000    
  10    0.000      5.0000E-10  5.0000E-10  2.0000E-10  2.0000E-10  1.0000E-10  1.0000E-10  2.0000E-10  5.0000E-10  8.0000E-10
  11    0.000      1.0000E-10  1.0000E-10  1.0000E-10  1.0000E-10  1.0000E-10  1.0000E-10  2.0000E-10  5.0000E-10   0.000    
  12   1.0000E-10  1.0000E-10  1.0000E-10  1.0000E-10  1.0000E-10  1.0000E-10  1.0000E-10  1.0000E-10  2.0000E-10   0.000    
  13   1.0000E-10  1.0000E-10  2.0000E-10  2.0000E-10  2.0000E-10  2.0000E-10  2.0000E-10  1.0000E-10  1.0000E-10   0.000    
  14    0.000      2.0000E-10  5.0000E-10  5.0000E-10  5.0000E-10  5.0000E-10  5.0000E-10  2.0000E-10  1.0000E-10   0.000    
  15    0.000       0.000      8.0000E-10  8.0000E-10  8.0000E-10  8.0000E-10   0.000       0.000       0.000       0.000    

                  ET RATE =  7.500000E-08

 USING ET EXTINCTION DEPTH FROM PREVIOUS STRESS PERIOD. CURRENT PERIOD IS:      46

 USING EXTINCTION WATER CONTENT FROM PREVIOUS STRESS PERIOD. CURRENT PERIOD IS:      46

 USING AIR ENTRY PRESSURE FROM PREVIOUS STRESS PERIOD. CURRENT PERIOD IS:      46

 USING ROOT PRESSURE HEAD FROM PREVIOUS STRESS PERIOD. CURRENT PERIOD IS:      46

 USING ROOT ACTIVITY FROM PREVIOUS STRESS PERIOD. CURRENT PERIOD IS:      46

 PROCESSING AG STRESS PERIOD DATA

 READING AG STRESS PERIOD DATA

 READING IRRIGATION WELL

 END PROCESSING AG STRESS PERIOD DATA OPTIONS
 
 SOLVING FOR HEAD 
                                                   Max.-Head-Change                         Max.-Flux-Residual
  Residual-Control   Outer-Iter.   Inner-Iter.     Column Row Layer    Maximum-Head-Change  Column Row Layer    Maximum-Flux-Residual          L2-NORM 
          0                 1           2             5    8     1       0.8321065925E-01       5    8    1         0.4515746235E+01      0.1199349242E+02
          0                 2           2             5    8     1      -0.8093987420E-02       5    8    1        -0.4515648507E+00      0.1199322163E+01
          0                 3           2             5    8     1       0.5511698272E-03       5    8    1         0.3160952759E-01      0.8395259150E-01
          0                 4           1             5    8     1      -0.2193155701E-04       5    8    1        -0.1292831038E-02      0.3433664725E-02

    ------------------------------------------------
       NWT REQUIRED            4 OUTER ITERATIONS 
       AND A TOTAL OF          7 INNER ITERATIONS.
    ------------------------------------------------

 NO OUTPUT CONTROL FOR STRESS PERIOD   46   TIME STEP    1
 
 SOLVING FOR HEAD 
                                                   Max.-Head-Change                         Max.-Flux-Residual
  Residual-Control   Outer-Iter.   Inner-Iter.     Column Row Layer    Maximum-Head-Change  Column Row Layer    Maximum-Flux-Residual          L2-NORM 
          0                 1           2             5    8     1       0.7974253729E-01       5    8    1         0.4324004016E+01      0.1163688671E+02
          0                 2           2             5    8     1      -0.7756643113E-02       5    8    1        -0.4323912795E+00      0.1163664324E+01
          0                 3           2             5    8     1       0.5281978389E-03       5    8    1         0.3026737088E-01      0.8145651519E-01
          0                 4           1             5    8     1      -0.2101748047E-04       5    8    1        -0.1237936781E-02      0.3331575359E-02

    ------------------------------------------------
       NWT REQUIRED            4 OUTER ITERATIONS 
       AND A TOTAL OF          7 INNER ITERATIONS.
    ------------------------------------------------

 NO OUTPUT CONTROL FOR STRESS PERIOD   46   TIME STEP    2
 
 SOLVING FOR HEAD 
                                                   Max.-Head-Change                         Max.-Flux-Residual
  Residual-Control   Outer-Iter.   Inner-Iter.     Column Row Layer    Maximum-Head-Change  Column Row Layer    Maximum-Flux-Residual          L2-NORM 
          0                 1           2             5    8     1       0.7648022307E-01       5    8    1         0.4143775752E+01      0.1129868443E+02
          0                 2           2             5    8     1      -0.7439317588E-02       5    8    1        -0.4143690556E+00      0.1129846560E+01
          0                 3           2             5    8     1       0.5065890620E-03       5    8    1         0.2900580895E-01      0.7908924572E-01
          0                 4           1             5    8     1      -0.2015764757E-04       5    8    1        -0.1186338857E-02      0.3234752938E-02

    ------------------------------------------------
       NWT REQUIRED            4 OUTER ITERATIONS 
       AND A TOTAL OF          7 INNER ITERATIONS.
    ------------------------------------------------

 NO OUTPUT CONTROL FOR STRESS PERIOD   46   TIME STEP    3
 
 SOLVING FOR HEAD 
                                                   Max.-Head-Change                         Max.-Flux-Residual
  Residual-Control   Outer-Iter.   Inner-Iter.     Column Row Layer    Maximum-Head-Change  Column Row Layer    Maximum-Flux-Residual          L2-NORM 
          0                 1           2             5    7     1       0.7429869799E-01       5    8    1         0.3974256970E+01      0.1097759327E+02
          0                 2           2             5    7     1      -0.7227177609E-02       5    8    1        -0.3974177355E+00      0.1097739663E+01
          0                 3           2             5    7     1       0.4921424683E-03       5    8    1         0.2781921075E-01      0.7684174017E-01
          0                 4           1             5    7     1      -0.1958280959E-04       5    8    1        -0.1137806942E-02      0.3142831418E-02

    ------------------------------------------------
       NWT REQUIRED            4 OUTER ITERATIONS 
       AND A TOTAL OF          7 INNER ITERATIONS.
    ------------------------------------------------

 NO OUTPUT CONTROL FOR STRESS PERIOD   46   TIME STEP    4
 
 SOLVING FOR HEAD 
                                                   Max.-Head-Change                         Max.-Flux-Residual
  Residual-Control   Outer-Iter.   Inner-Iter.     Column Row Layer    Maximum-Head-Change  Column Row Layer    Maximum-Flux-Residual          L2-NORM 
          0                 1           2             5    7     1       0.7270855583E-01       5    7    1         0.3861262583E+01      0.1067240613E+02
          0                 2           2             5    7     1      -0.7072509865E-02       5    7    1        -0.3861229314E+00      0.1067222951E+01
          0                 3           2             5    7     1       0.4816100731E-03       5    7    1         0.2702853027E-01      0.7470555004E-01
          0                 4           1             5    7     1      -0.1916371600E-04       5    7    1        -0.1105468273E-02      0.3055461862E-02

    ------------------------------------------------
       NWT REQUIRED            4 OUTER ITERATIONS 
       AND A TOTAL OF          7 INNER ITERATIONS.
    ------------------------------------------------

 NO OUTPUT CONTROL FOR STRESS PERIOD   46   TIME STEP    5
 
 SOLVING FOR HEAD 
                                                   Max.-Head-Change                         Max.-Flux-Residual
  Residual-Control   Outer-Iter.   Inner-Iter.     Column Row Layer    Maximum-Head-Change  Column Row Layer    Maximum-Flux-Residual          L2-NORM 
          0                 1           2             5    7     1       0.7114803899E-01       5    7    1         0.3778629972E+01      0.1038202150E+02
          0                 2           2             5    7     1      -0.6920722612E-02       5    7    1        -0.3778602434E+00      0.1038186294E+01
          0                 3           2             5    7     1       0.4712738414E-03       5    7    1         0.2645013645E-01      0.7267296510E-01
          0                 4           1             5    7     1      -0.1875242829E-04       5    7    1        -0.1081811971E-02      0.2972327729E-02

    ------------------------------------------------
       NWT REQUIRED            4 OUTER ITERATIONS 
       AND A TOTAL OF          7 INNER ITERATIONS.
    ------------------------------------------------

 NO OUTPUT CONTROL FOR STRESS PERIOD   46   TIME STEP    6
 
 SOLVING FOR HEAD 
                                                   Max.-Head-Change                         Max.-Flux-Residual
  Residual-Control   Outer-Iter.   Inner-Iter.     Column Row Layer    Maximum-Head-Change  Column Row Layer    Maximum-Flux-Residual          L2-NORM 
          0                 1           2             5    8     1       0.1480439643E+00       5    8    1         0.8091931305E+01      0.1245752423E+02
          0                 2           2             4    7     1      -0.6790707688E-02       5    7    1        -0.3697279681E+00      0.9862617854E+00
          0                 3           2             5    8     1       0.1273511739E-02       5    8    1         0.6972300746E-01      0.9625627964E-01
          0                 4           1             5    8     1       0.3344045575E-03       5    8    1         0.1846640214E-01      0.1866038730E-01
          0                 5           1             5    8     1       0.8780948569E-04       5    8    1         0.4842578276E-02      0.4843007078E-02

    ------------------------------------------------
       NWT REQUIRED            5 OUTER ITERATIONS 
       AND A TOTAL OF          8 INNER ITERATIONS.
    ------------------------------------------------

 NO OUTPUT CONTROL FOR STRESS PERIOD   46   TIME STEP    7
 
 SOLVING FOR HEAD 
                                                   Max.-Head-Change                         Max.-Flux-Residual
  Residual-Control   Outer-Iter.   Inner-Iter.     Column Row Layer    Maximum-Head-Change  Column Row Layer    Maximum-Flux-Residual          L2-NORM 
          0                 1           2             5    8     1       0.1399432260E+00       5    8    1         0.7640625275E+01      0.1202504967E+02
          0                 2           2             5    8     1       0.3674576206E-01       5    8    1         0.2035166480E+01      0.2236979640E+01
          0                 3           2             5    8     1       0.6726145588E-02       5    8    1         0.3704594793E+00      0.3762124619E+00
          0                 4           1             5    8     1      -0.6539348572E-03       5    8    1        -0.3708217658E-01      0.3716978298E-01
          0                 5           1             5    8     1       0.4449852540E-04       5    8    1         0.2596081278E-02      0.2596969852E-02

    ------------------------------------------------
       NWT REQUIRED            5 OUTER ITERATIONS 
       AND A TOTAL OF          8 INNER ITERATIONS.
    ------------------------------------------------

 NO OUTPUT CONTROL FOR STRESS PERIOD   46   TIME STEP    8
 
 SOLVING FOR HEAD 
                                                   Max.-Head-Change                         Max.-Flux-Residual
  Residual-Control   Outer-Iter.   Inner-Iter.     Column Row Layer    Maximum-Head-Change  Column Row Layer    Maximum-Flux-Residual          L2-NORM 
          0                 1           2             5    8     1       0.1298133705E+00       5    8    1         0.7076174408E+01      0.1154955578E+02
          0                 2           2             5    8     1      -0.1262117335E-01       5    8    1        -0.7072753566E+00      0.1154727686E+01
          0                 3           2             5    8     1       0.8588317439E-03       5    8    1         0.4947291816E-01      0.8080868496E-01
          0                 4           1             5    8     1      -0.3413286540E-04       5    8    1        -0.2020997088E-02      0.3303581548E-02

    ------------------------------------------------
       NWT REQUIRED            4 OUTER ITERATIONS 
       AND A TOTAL OF          7 INNER ITERATIONS.
    ------------------------------------------------

 NO OUTPUT CONTROL FOR STRESS PERIOD   46   TIME STEP    9
 
 SOLVING FOR HEAD 
                                                   Max.-Head-Change                         Max.-Flux-Residual
  Residual-Control   Outer-Iter.   Inner-Iter.     Column Row Layer    Maximum-Head-Change  Column Row Layer    Maximum-Flux-Residual          L2-NORM 
          0                 1           2             5    8     1       0.1238606758E+00       5    8    1         0.6745654338E+01      0.1120513869E+02
          0                 2           2             5    8     1      -0.1204239437E-01       5    8    1        -0.6742372636E+00      0.1120299983E+01
          0                 3           2             5    8     1       0.8194477838E-03       5    8    1         0.4716193021E-01      0.7840012147E-01
          0                 4           1             5    8     1      -0.3256761369E-04       5    8    1        -0.1926589735E-02      0.3205163352E-02

    ------------------------------------------------
       NWT REQUIRED            4 OUTER ITERATIONS 
       AND A TOTAL OF          7 INNER ITERATIONS.
    ------------------------------------------------

 NO OUTPUT CONTROL FOR STRESS PERIOD   46   TIME STEP   10
 
 SOLVING FOR HEAD 
                                                   Max.-Head-Change                         Max.-Flux-Residual
  Residual-Control   Outer-Iter.   Inner-Iter.     Column Row Layer    Maximum-Head-Change  Column Row Layer    Maximum-Flux-Residual          L2-NORM 
          0                 1           2             5    8     1       0.1182859788E+00       5    8    1         0.6436336924E+01      0.1088116610E+02
          0                 2           2             5    8     1      -0.1150037037E-01       5    8    1        -0.6433187179E+00      0.1087915759E+01
          0                 3           2             5    8     1       0.7825648526E-03       5    8    1         0.4499920240E-01      0.7613449753E-01
          0                 4           1             5    8     1      -0.3110176107E-04       5    8    1        -0.1838239114E-02      0.3112585496E-02

    ------------------------------------------------
       NWT REQUIRED            4 OUTER ITERATIONS 
       AND A TOTAL OF          7 INNER ITERATIONS.
    ------------------------------------------------

 NO OUTPUT CONTROL FOR STRESS PERIOD   46   TIME STEP   11
 
 SOLVING FOR HEAD 
                                                   Max.-Head-Change                         Max.-Flux-Residual
  Residual-Control   Outer-Iter.   Inner-Iter.     Column Row Layer    Maximum-Head-Change  Column Row Layer    Maximum-Flux-Residual          L2-NORM 
          0                 1           2             5    8     1       0.1130615504E+00       5    8    1         0.6146656325E+01      0.1057588839E+02
          0                 2           2             5    8     1      -0.1099240481E-01       5    8    1        -0.6143631698E+00      0.1057400119E+01
          0                 3           2             5    8     1       0.7479994638E-03       5    8    1         0.4297378439E-01      0.7399958188E-01
          0                 4           1             5    8     1      -0.2972801526E-04       5    8    1        -0.1755497861E-02      0.3025348781E-02

    ------------------------------------------------
       NWT REQUIRED            4 OUTER ITERATIONS 
       AND A TOTAL OF          7 INNER ITERATIONS.
    ------------------------------------------------

 NO OUTPUT CONTROL FOR STRESS PERIOD   46   TIME STEP   12
 
 SOLVING FOR HEAD 
                                                   Max.-Head-Change                         Max.-Flux-Residual
  Residual-Control   Outer-Iter.   Inner-Iter.     Column Row Layer    Maximum-Head-Change  Column Row Layer    Maximum-Flux-Residual          L2-NORM 
          0                 1           2             5    8     1       0.1081619113E+00       5    8    1         0.5875174941E+01      0.1028773139E+02
          0                 2           2             5    8     1       0.1213090761E-01       5    8    1         0.6784990036E+00      0.1083298015E+01
          0                 3           2             5    8     1       0.3185057573E-02       5    8    1         0.1750607821E+00      0.1848428562E+00
          0                 4           1             5    8     1       0.8362632727E-03       5    8    1         0.4615600208E-01      0.4621467448E-01
          0                 5           1             5    8     1       0.2195679167E-03       5    8    1         0.1211098088E-01      0.1211152669E-01
          0                 6           1             5    8     1       0.5764939971E-04       5    8    1         0.3179680562E-02      0.3179861197E-02

    ------------------------------------------------
       NWT REQUIRED            6 OUTER ITERATIONS 
       AND A TOTAL OF          9 INNER ITERATIONS.
    ------------------------------------------------

 NO OUTPUT CONTROL FOR STRESS PERIOD   46   TIME STEP   13
 
 SOLVING FOR HEAD 
                                                   Max.-Head-Change                         Max.-Flux-Residual
  Residual-Control   Outer-Iter.   Inner-Iter.     Column Row Layer    Maximum-Head-Change  Column Row Layer    Maximum-Flux-Residual          L2-NORM 
          0                 1           2             5    8     1       0.1019086513E+00       5    8    1         0.5527951256E+01      0.9977812671E+01
          0                 2           2             5    8     1       0.2675642323E-01       5    8    1         0.1485653525E+01      0.1702096261E+01
          0                 3           2             5    8     1       0.7024938296E-02       5    8    1         0.3868801459E+00      0.3913016278E+00
          0                 4           1             5    8     1       0.1844417910E-02       5    8    1         0.1017723414E+00      0.1017957583E+00
          0                 5           1             5    8     1       0.4842576373E-03       5    8    1         0.2671336716E-01      0.2671391581E-01
          0                 6           1             5    8     1       0.1271433730E-03       5    8    1         0.7013927191E-02      0.7013990548E-02
          0                 7           1             5    8     1       0.3338189701E-04       5    8    1         0.1841522374E-02      0.1841550161E-02

    ------------------------------------------------
       NWT REQUIRED            7 OUTER ITERATIONS 
       AND A TOTAL OF         10 INNER ITERATIONS.
    ------------------------------------------------

 NO OUTPUT CONTROL FOR STRESS PERIOD   46   TIME STEP   14
 
 SOLVING FOR HEAD 
                                                   Max.-Head-Change                         Max.-Flux-Residual
  Residual-Control   Outer-Iter.   Inner-Iter.     Column Row Layer    Maximum-Head-Change  Column Row Layer    Maximum-Flux-Residual          L2-NORM 
          0                 1           2             4    8     1       0.1503965345E+00       4    8    1         0.8053589931E+01      0.1208620624E+02
          0                 2           2             4    8     1      -0.1456152755E-01       4    8    1        -0.8049652697E+00      0.1130018385E+01
          0                 3           2             4    8     1       0.9908506698E-03       4    8    1         0.5630561805E-01      0.7906759510E-01
          0                 4           1             4    8     1      -0.3937867132E-04       4    8    1        -0.2300078687E-02      0.3231602564E-02

    ------------------------------------------------
       NWT REQUIRED            4 OUTER ITERATIONS 
       AND A TOTAL OF          7 INNER ITERATIONS.
    ------------------------------------------------

 NO OUTPUT CONTROL FOR STRESS PERIOD   46   TIME STEP   15
 
 SOLVING FOR HEAD 
                                                   Max.-Head-Change                         Max.-Flux-Residual
  Residual-Control   Outer-Iter.   Inner-Iter.     Column Row Layer    Maximum-Head-Change  Column Row Layer    Maximum-Flux-Residual          L2-NORM 
          0                 1           2             4    8     1       0.1463970524E+00       4    8    1         0.7835520355E+01      0.1333461604E+02
          0                 2           2             4    8     1      -0.1422662583E-01       4    8    1        -0.7831675694E+00      0.1148182943E+01
          0                 3           2             4    8     1       0.9680592698E-03       4    8    1         0.5478074154E-01      0.8180403819E-01
          0                 4           1             4    8     1      -0.3847272959E-04       4    8    1        -0.2237776109E-02      0.3552546259E-02

    ------------------------------------------------
       NWT REQUIRED            4 OUTER ITERATIONS 
       AND A TOTAL OF          7 INNER ITERATIONS.
    ------------------------------------------------

 NO OUTPUT CONTROL FOR STRESS PERIOD   46   TIME STEP   16
 
 SOLVING FOR HEAD 
                                                   Max.-Head-Change                         Max.-Flux-Residual
  Residual-Control   Outer-Iter.   Inner-Iter.     Column Row Layer    Maximum-Head-Change  Column Row Layer    Maximum-Flux-Residual          L2-NORM 
          0                 1           2             5    7     1       0.1434688807E+00       5    7    1         0.7755013610E+01      0.1350451967E+02
          0                 2           2             5    7     1      -0.1394893179E-01       5    7    1        -0.7751351569E+00      0.1349913541E+01
          0                 3           2             5    7     1       0.9491736383E-03       5    7    1         0.5421917934E-01      0.9443912429E-01
          0                 4           1             5    7     1      -0.3772293772E-04       5    7    1        -0.2214862451E-02      0.3885236544E-02

    ------------------------------------------------
       NWT REQUIRED            4 OUTER ITERATIONS 
       AND A TOTAL OF          7 INNER ITERATIONS.
    ------------------------------------------------

 NO OUTPUT CONTROL FOR STRESS PERIOD   46   TIME STEP   17
 
 SOLVING FOR HEAD 
                                                   Max.-Head-Change                         Max.-Flux-Residual
  Residual-Control   Outer-Iter.   Inner-Iter.     Column Row Layer    Maximum-Head-Change  Column Row Layer    Maximum-Flux-Residual          L2-NORM 
          0                 1           2             5    7     1       0.1393531692E+00       5    7    1         0.7455988312E+01      0.1475926344E+02
          0                 2           2             4    8     1       0.1514545928E-01       4    8    1         0.8324683418E+00      0.1392544611E+01
          0                 3           2             4    8     1       0.4070211230E-02       4    8    1         0.2200180733E+00      0.2486738018E+00
          0                 4           2             4    8     1       0.1093837337E-02       4    8    1         0.5936098444E-01      0.6395665955E-01
          0                 5           2             4    8     1       0.2939600999E-03       4    8    1         0.1594305040E-01      0.1710576210E-01
          0                 6           1             4    8     1       0.7899950514E-04       4    8    1         0.4284466551E-02      0.4583518750E-02

    ------------------------------------------------
       NWT REQUIRED            6 OUTER ITERATIONS 
       AND A TOTAL OF         11 INNER ITERATIONS.
    ------------------------------------------------

 NO OUTPUT CONTROL FOR STRESS PERIOD   46   TIME STEP   18
 
 SOLVING FOR HEAD 
                                                   Max.-Head-Change                         Max.-Flux-Residual
  Residual-Control   Outer-Iter.   Inner-Iter.     Column Row Layer    Maximum-Head-Change  Column Row Layer    Maximum-Flux-Residual          L2-NORM 
          0                 1           2             5    7     1       0.1357641503E+00       5    7    1         0.7260890461E+01      0.1433935088E+02
          0                 2           2             4    8     1       0.3471517697E-01       4    8    1         0.1894277279E+01      0.2841895304E+01
          0                 3           2             5    6     1       0.8716161935E-02       5    6    1         0.4796932436E+00      0.5209197045E+00
          0                 4           2             5    6     1       0.1982553206E-02       5    6    1         0.1093666864E+00      0.1101955811E+00
          0                 5           2             5    6     1      -0.1927488902E-03       5    6    1        -0.1093382576E-01      0.1094906546E-01
          0                 6           1             5    6     1       0.1311605203E-04       5    6    1         0.7649752483E-03      0.7652117416E-03

    ------------------------------------------------
       NWT REQUIRED            6 OUTER ITERATIONS 
       AND A TOTAL OF         11 INNER ITERATIONS.
    ------------------------------------------------

 NO OUTPUT CONTROL FOR STRESS PERIOD   46   TIME STEP   19
 
 SOLVING FOR HEAD 
                                                   Max.-Head-Change                         Max.-Flux-Residual
  Residual-Control   Outer-Iter.   Inner-Iter.     Column Row Layer    Maximum-Head-Change  Column Row Layer    Maximum-Flux-Residual          L2-NORM 
          0                 1           2             5    7     1       0.1328578238E+00       5    7    1         0.7105273954E+01      0.1389431944E+02
          0                 2           2             5    7     1       0.2420481562E-01       5    7    1         0.1356640091E+01      0.1776619340E+01
          0                 3           2             5    7     1       0.6320816262E-02       5    7    1         0.3490876883E+00      0.3692979741E+00
          0                 4           2             5    7     1       0.1654455604E-02       5    7    1         0.9148533951E-01      0.9202776163E-01
          0                 5           2             5    7     1       0.4341768560E-03       5    7    1         0.2394794476E-01      0.2395918752E-01
          0                 6           2             5    7     1       0.1139405869E-03       5    7    1         0.6287558947E-02      0.6287749768E-02
          0                 7           1             5    7     1       0.2990130947E-04       5    7    1         0.1649913298E-02      0.1649974171E-02

    ------------------------------------------------
       NWT REQUIRED            7 OUTER ITERATIONS 
       AND A TOTAL OF         13 INNER ITERATIONS.
    ------------------------------------------------

 NO OUTPUT CONTROL FOR STRESS PERIOD   46   TIME STEP   20
 
 SOLVING FOR HEAD 
                                                   Max.-Head-Change                         Max.-Flux-Residual
  Residual-Control   Outer-Iter.   Inner-Iter.     Column Row Layer    Maximum-Head-Change  Column Row Layer    Maximum-Flux-Residual          L2-NORM 
          0                 1           2             4    7     1       0.1596826196E+00       4    7    1         0.8465362260E+01      0.1547520160E+02
          0                 2           2             5    8     1       0.2355034986E-01       5    8    1         0.1292330880E+01      0.2192211175E+01
          0                 3           2             5    8     1       0.6182993448E-02       5    8    1         0.3421307695E+00      0.3736843507E+00
          0                 4           2             5    8     1       0.1623306251E-02       5    8    1         0.8946714338E-01      0.8993575414E-01
          0                 5           1             5    8     1       0.4261896193E-03       5    8    1         0.2351607685E-01      0.2351799217E-01
          0                 6           1             5    8     1       0.1118936035E-03       5    8    1         0.6172497482E-02      0.6172718333E-02
          0                 7           1             5    8     1       0.2937701757E-04       5    8    1         0.1620607497E-02      0.1620651250E-02

    ------------------------------------------------
       NWT REQUIRED            7 OUTER ITERATIONS 
       AND A TOTAL OF         11 INNER ITERATIONS.
    ------------------------------------------------

 NO OUTPUT CONTROL FOR STRESS PERIOD   46   TIME STEP   21
 
 SOLVING FOR HEAD 
                                                   Max.-Head-Change                         Max.-Flux-Residual
  Residual-Control   Outer-Iter.   Inner-Iter.     Column Row Layer    Maximum-Head-Change  Column Row Layer    Maximum-Flux-Residual          L2-NORM 
          0                 1           2             4    7     1       0.1574680135E+00       4    7    1         0.8347699548E+01      0.1515421876E+02
          0                 2           2             5    8     1       0.2242999029E-01       5    8    1         0.1257363548E+01      0.1732573233E+01
          0                 3           2             5    8     1       0.5889118010E-02       5    8    1         0.3234920272E+00      0.3359689274E+00
          0                 4           1             4    7     1       0.1847936490E-03       4    7    1         0.1010937689E-01      0.1093142322E-01
          0                 5           1             4    7     1       0.4945807620E-04       4    7    1         0.2689721426E-02      0.2697627201E-02

    ------------------------------------------------
       NWT REQUIRED            5 OUTER ITERATIONS 
       AND A TOTAL OF          8 INNER ITERATIONS.
    ------------------------------------------------

 NO OUTPUT CONTROL FOR STRESS PERIOD   46   TIME STEP   22
 
 SOLVING FOR HEAD 
                                                   Max.-Head-Change                         Max.-Flux-Residual
  Residual-Control   Outer-Iter.   Inner-Iter.     Column Row Layer    Maximum-Head-Change  Column Row Layer    Maximum-Flux-Residual          L2-NORM 
          0                 1           2             4    7     1       0.1535337290E+00       4    7    1         0.8134318569E+01      0.1483874981E+02
          0                 2           2             4    7     1       0.4109085319E-01       4    7    1         0.2257649858E+01      0.2575992803E+01
          0                 3           2             4    7     1       0.4196250835E-02       4    7    1         0.2267408498E+00      0.2432053405E+00
          0                 4           1             4    7     1      -0.4079658736E-03       4    7    1        -0.2276351277E-01      0.2301031328E-01
          0                 5           1             4    7     1       0.2776067898E-04       4    7    1         0.1596300383E-02      0.1596607677E-02

    ------------------------------------------------
       NWT REQUIRED            5 OUTER ITERATIONS 
       AND A TOTAL OF          8 INNER ITERATIONS.
    ------------------------------------------------

 NO OUTPUT CONTROL FOR STRESS PERIOD   46   TIME STEP   23
 
 SOLVING FOR HEAD 
                                                   Max.-Head-Change                         Max.-Flux-Residual
  Residual-Control   Outer-Iter.   Inner-Iter.     Column Row Layer    Maximum-Head-Change  Column Row Layer    Maximum-Flux-Residual          L2-NORM 
          0                 1           2             4    7     1       0.1483962161E+00       4    7    1         0.7818231791E+01      0.1529664498E+02
          0                 2           2             4    8     1       0.2814999605E-01       4    8    1         0.1542754324E+01      0.2355454510E+01
          0                 3           2             4    8     1       0.7564520537E-02       4    8    1         0.4092506511E+00      0.4410119575E+00
          0                 4           2             4    8     1       0.2032762710E-02       4    8    1         0.1103119030E+00      0.1116225196E+00
          0                 5           2             4    8     1       0.5462505393E-03       4    8    1         0.2962946141E-01      0.2988648612E-01
          0                 6           2             4    8     1       0.1467902240E-03       4    8    1         0.7962328336E-02      0.8038153554E-02
          0                 7           1             4    8     1       0.3944593093E-04       4    8    1         0.2139648520E-02      0.2162185708E-02

    ------------------------------------------------
       NWT REQUIRED            7 OUTER ITERATIONS 
       AND A TOTAL OF         13 INNER ITERATIONS.
    ------------------------------------------------

 NO OUTPUT CONTROL FOR STRESS PERIOD   46   TIME STEP   24
 
 SOLVING FOR HEAD 
                                                   Max.-Head-Change                         Max.-Flux-Residual
  Residual-Control   Outer-Iter.   Inner-Iter.     Column Row Layer    Maximum-Head-Change  Column Row Layer    Maximum-Flux-Residual          L2-NORM 
          0                 1           2             4    7     1       0.1478885480E+00       4    7    1         0.7770305628E+01      0.1581671255E+02
          0                 2           2             5    6     1       0.2703457146E-01       5    6    1         0.1509539123E+01      0.2221442892E+01
          0                 3           2             5    6     1       0.7059653512E-02       5    6    1         0.3903451963E+00      0.4284274193E+00
          0                 4           2             5    6     1       0.1843476482E-02       5    6    1         0.1021741946E+00      0.1068562854E+00
          0                 5           2             5    6     1       0.4813686516E-03       5    6    1         0.2667098358E-01      0.2783749230E-01
          0                 6           2             5    6     1       0.1256905905E-03       5    6    1         0.6964114661E-02      0.7271976249E-02
          0                 7           1             5    6     1       0.3281792250E-04       5    6    1         0.1818395409E-02      0.1899822482E-02

    ------------------------------------------------
       NWT REQUIRED            7 OUTER ITERATIONS 
       AND A TOTAL OF         13 INNER ITERATIONS.
    ------------------------------------------------

 NO OUTPUT CONTROL FOR STRESS PERIOD   46   TIME STEP   25
 
 SOLVING FOR HEAD 
                                                   Max.-Head-Change                         Max.-Flux-Residual
  Residual-Control   Outer-Iter.   Inner-Iter.     Column Row Layer    Maximum-Head-Change  Column Row Layer    Maximum-Flux-Residual          L2-NORM 
          0                 1           2             4    7     1       0.1465866596E+00       4    7    1         0.7704280563E+01      0.1551705845E+02
          0                 2           2             5    7     1       0.3146096941E-01       5    7    1         0.1740216258E+01      0.2400851787E+01
          0                 3           2             5    7     1       0.8255526048E-02       5    7    1         0.4558187415E+00      0.4757266159E+00
          0                 4           2             5    7     1       0.2166303741E-02       5    7    1         0.1194965658E+00      0.1197597203E+00
          0                 5           2             5    7     1       0.5684524417E-03       5    7    1         0.3137210010E-01      0.3137361279E-01
          0                 6           2             5    7     1       0.1491656940E-03       5    7    1         0.8231038038E-02      0.8231380484E-02
          0                 7           1             5    7     1       0.3914207102E-04       5    7    1         0.2159920255E-02      0.2160000579E-02

    ------------------------------------------------
       NWT REQUIRED            7 OUTER ITERATIONS 
       AND A TOTAL OF         13 INNER ITERATIONS.
    ------------------------------------------------

 NO OUTPUT CONTROL FOR STRESS PERIOD   46   TIME STEP   26
 
 SOLVING FOR HEAD 
                                                   Max.-Head-Change                         Max.-Flux-Residual
  Residual-Control   Outer-Iter.   Inner-Iter.     Column Row Layer    Maximum-Head-Change  Column Row Layer    Maximum-Flux-Residual          L2-NORM 
          0                 1           2             4    7     1       0.1457162799E+00       4    7    1         0.7664102638E+01      0.1522630884E+02
          0                 2           2             5    7     1       0.1369870697E-01       5    7    1         0.7603863802E+00      0.1558645710E+01
          0                 3           2             4    7     1       0.3377805946E-02       4    7    1         0.1837445273E+00      0.2151303498E+00
          0                 4           1             4    7     1       0.9039590894E-03       4    7    1         0.4914956606E-01      0.4954542574E-01
          0                 5           1             4    7     1       0.2419150312E-03       4    7    1         0.1316357208E-01      0.1316520156E-01
          0                 6           1             4    7     1       0.6474062291E-04       4    7    1         0.3521797468E-02      0.3521976610E-02

    ------------------------------------------------
       NWT REQUIRED            6 OUTER ITERATIONS 
       AND A TOTAL OF          9 INNER ITERATIONS.
    ------------------------------------------------

 NO OUTPUT CONTROL FOR STRESS PERIOD   46   TIME STEP   27
 
 SOLVING FOR HEAD 
                                                   Max.-Head-Change                         Max.-Flux-Residual
  Residual-Control   Outer-Iter.   Inner-Iter.     Column Row Layer    Maximum-Head-Change  Column Row Layer    Maximum-Flux-Residual          L2-NORM 
          0                 1           2             4    7     1       0.1427885051E+00       4    7    1         0.7509583050E+01      0.1495667837E+02
          0                 2           2             4    7     1       0.3713357405E-01       4    7    1         0.2034266728E+01      0.2311702049E+01
          0                 3           2             4    7     1      -0.3592340663E-02       4    7    1        -0.2028637735E+00      0.2236206573E+00
          0                 4           2             4    6     1       0.2551278891E-03       4    7    1         0.1418107998E-01      0.1999920713E-01
          0                 5           1             4    6     1       0.6809417256E-04       4    6    1         0.3719673824E-02      0.3763015822E-02

    ------------------------------------------------
       NWT REQUIRED            5 OUTER ITERATIONS 
       AND A TOTAL OF          9 INNER ITERATIONS.
    ------------------------------------------------

 NO OUTPUT CONTROL FOR STRESS PERIOD   46   TIME STEP   28
 
 SOLVING FOR HEAD 
                                                   Max.-Head-Change                         Max.-Flux-Residual
  Residual-Control   Outer-Iter.   Inner-Iter.     Column Row Layer    Maximum-Head-Change  Column Row Layer    Maximum-Flux-Residual          L2-NORM 
          0                 1           2             4    7     1       0.1389839387E+00       4    7    1         0.7306056272E+01      0.1468803115E+02
          0                 2           2             4    6     1       0.3456267961E-01       4    6    1         0.1902235669E+01      0.2266011505E+01
          0                 3           2             4    6     1       0.9224635125E-02       4    6    1         0.5016330938E+00      0.5091463563E+00
          0                 4           2             4    6     1       0.2462029602E-02       4    6    1         0.1342663712E+00      0.1343088095E+00
          0                 5           2             4    6     1       0.6571089047E-03       4    6    1         0.3581966789E-01      0.3582225190E-01
          0                 6           2             4    6     1       0.1753805950E-03       4    6    1         0.9560825913E-02      0.9561404425E-02
          0                 7           1             4    6     1       0.4680860928E-04       4    6    1         0.2551730530E-02      0.2551905977E-02

    ------------------------------------------------
       NWT REQUIRED            7 OUTER ITERATIONS 
       AND A TOTAL OF         13 INNER ITERATIONS.
    ------------------------------------------------

 NO OUTPUT CONTROL FOR STRESS PERIOD   46   TIME STEP   29
 
 SOLVING FOR HEAD 
                                                   Max.-Head-Change                         Max.-Flux-Residual
  Residual-Control   Outer-Iter.   Inner-Iter.     Column Row Layer    Maximum-Head-Change  Column Row Layer    Maximum-Flux-Residual          L2-NORM 
          0                 1           2             4    7     1       0.1381703361E+00       4    7    1         0.7268307710E+01      0.1441816903E+02
          0                 2           2             5    8     1       0.2020427485E-01       5    8    1         0.1115257276E+01      0.1778208113E+01
          0                 3           2             5    8     1       0.5369364085E-02       5    8    1         0.2928930119E+00      0.3523482216E+00
          0                 4           2             5    8     1       0.1427726768E-02       5    8    1         0.7805905619E-01      0.9225858382E-01
          0                 5           2             5    8     1       0.3798455555E-03       5    8    1         0.2075078637E-01      0.2481183882E-01
          0                 6           1             5    8     1       0.1011132088E-03       5    8    1         0.5521524520E-02      0.6684844207E-02
          0                 7           1             5    8     1       0.2693062318E-04       5    8    1         0.1470023087E-02      0.1802249850E-02

    ------------------------------------------------
       NWT REQUIRED            7 OUTER ITERATIONS 
       AND A TOTAL OF         12 INNER ITERATIONS.
    ------------------------------------------------

 NO OUTPUT CONTROL FOR STRESS PERIOD   46   TIME STEP   30



 STREAM LISTING     PERIOD     46   STEP       30

 LAYER ROW COL. STREAM  RCH.  FLOW INTO     FLOW TO   FLOW OUT OF   OVRLND.     DIRECT     STREAM       STREAM     STREAM     STREAM   STREAMBED  STREAMBED
                SEG.NO.  NO.  STRM. RCH.    AQUIFER    STRM. RCH.    RUNOFF     PRECIP       ET          HEAD       DEPTH      WIDTH   CONDCTNC.   GRADIENT

   1    1    1     1     1    1.9000E+01  2.1427E-01   1.8786E+01  0.000E+00  0.000E+00  0.000E+00  1.09413E+03  1.082E+00  1.166E+01  5.249E-02  1.361E+00
   1    2    2     1     2    1.8786E+01  3.3054E-01   1.8455E+01  0.000E+00  0.000E+00  0.000E+00  1.08914E+03  1.077E+00  1.158E+01  8.107E-02  1.359E+00
   1    3    3     1     3    1.8455E+01  2.8064E-01   1.8175E+01  0.000E+00  0.000E+00  0.000E+00  1.08349E+03  1.072E+00  1.149E+01  6.892E-02  1.357E+00
   1    3    4     1     4    1.8175E+01  2.5740E-01   1.7917E+01  0.000E+00  0.000E+00  0.000E+00  1.07848E+03  1.068E+00  1.140E+01  6.328E-02  1.356E+00
   1    4    5     2     1    1.5917E+01  3.0542E-01   1.5612E+01  0.000E+00  0.000E+00  0.000E+00  1.07285E+03  9.157E-01  1.200E+01  7.800E-02  1.305E+00
   1    5    6     2     2    1.5612E+01  2.3438E-01   1.5377E+01  0.000E+00  0.000E+00  0.000E+00  1.06742E+03  9.063E-01  1.200E+01  6.000E-02  1.302E+00
   1    6    6     2     3    1.5377E+01  2.3388E-01   1.5143E+01  0.000E+00  0.000E+00  0.000E+00  1.06269E+03  8.980E-01  1.200E+01  6.000E-02  1.299E+00
   1    7    6     2     4    1.5143E+01  2.3338E-01   1.4910E+01  0.000E+00  0.000E+00  0.000E+00  1.05797E+03  8.897E-01  1.200E+01  6.000E-02  1.297E+00
   1    8    6     2     5    1.4910E+01  2.3289E-01   1.4677E+01  0.000E+00  0.000E+00  0.000E+00  1.05324E+03  8.814E-01  1.200E+01  6.000E-02  1.294E+00
   1    3    5     3     1    2.0000E+00  2.8252E-01   1.7175E+00  0.000E+00  0.000E+00  0.000E+00  1.07555E+03  1.909E+00  9.636E+00  7.227E-02  1.955E+00
   1    3    6     3     2    1.7175E+00  2.4905E-01   1.4684E+00  0.000E+00  0.000E+00  0.000E+00  1.07264E+03  1.727E+00  8.909E+00  6.682E-02  1.864E+00
   1    3    7     3     3    1.4684E+00  1.9718E-01   1.2712E+00  0.000E+00  0.000E+00  0.000E+00  1.06987E+03  1.555E+00  8.218E+00  5.547E-02  1.777E+00
   1    4    8     3     4    1.2712E+00  2.2567E-01   1.0456E+00  0.000E+00  0.000E+00  0.000E+00  1.06682E+03  1.364E+00  7.455E+00  6.709E-02  1.682E+00
   1    5    8     3     5    1.0456E+00  1.5790E-01   8.8768E-01  0.000E+00  0.000E+00  0.000E+00  1.06362E+03  1.164E+00  6.655E+00  4.991E-02  1.582E+00
   1    6    8     3     6    8.8768E-01  5.5980E-02   8.3170E-01  0.000E+00  0.000E+00  0.000E+00  1.06158E+03  1.036E+00  6.145E+00  1.844E-02  1.518E+00
   1    5   10     4     1    1.0000E+01  9.0919E-02   9.9091E+00  0.000E+00  0.000E+00  0.000E+00  1.07836E+03  6.368E-01  1.000E+01  2.500E-02  1.212E+00
   1    5    9     4     2    9.9091E+00  1.8158E-01   9.7275E+00  0.000E+00  0.000E+00  0.000E+00  1.07154E+03  6.315E-01  1.000E+01  5.000E-02  1.211E+00
   1    6    8     4     3    9.7275E+00  1.2689E-01   9.6006E+00  0.000E+00  0.000E+00  0.000E+00  1.06381E+03  6.256E-01  1.000E+01  3.500E-02  1.209E+00
   1    6    8     5     1    1.0432E+01  2.2686E-01   1.0205E+01  0.000E+00  0.000E+00  0.000E+00  1.05868E+03  6.790E-01  1.542E+01  6.166E-02  1.226E+00
   1    7    7     5     2    1.0205E+01  2.7894E-01   9.9265E+00  0.000E+00  0.000E+00  0.000E+00  1.05417E+03  6.732E-01  1.519E+01  7.594E-02  1.224E+00
   1    8    7     5     3    9.9265E+00  1.9221E-01   9.7343E+00  0.000E+00  0.000E+00  0.000E+00  1.04992E+03  6.676E-01  1.497E+01  5.241E-02  1.223E+00
   1    8    6     5     4    9.7343E+00  1.3577E-01   9.5985E+00  0.000E+00  0.000E+00  0.000E+00  1.04691E+03  6.637E-01  1.482E+01  3.706E-02  1.221E+00
   1    9    6     6     1    2.4276E+01  2.5176E-01   2.4024E+01  0.000E+00  0.000E+00  0.000E+00  1.04392E+03  1.196E+00  1.200E+01  6.000E-02  1.399E+00
   1   10    7     6     2    2.4024E+01  2.5131E-01   2.3773E+01  0.000E+00  0.000E+00  0.000E+00  1.03937E+03  1.188E+00  1.200E+01  6.000E-02  1.396E+00
   1   11    7     6     3    2.3773E+01  2.5086E-01   2.3522E+01  0.000E+00  0.000E+00  0.000E+00  1.03482E+03  1.181E+00  1.200E+01  6.000E-02  1.394E+00
   1   12    7     6     4    2.3522E+01  2.5041E-01   2.3271E+01  0.000E+00  0.000E+00  0.000E+00  1.03026E+03  1.173E+00  1.200E+01  6.000E-02  1.391E+00
   1   13    7     6     5    2.3271E+01  1.1974E-02   2.3259E+01  0.000E+00  0.000E+00  0.000E+00  1.02708E+03  1.169E+00  1.200E+01  2.400E-02  1.663E-01
   1   14    9     7     1    1.5000E+02  1.3786E+00   1.4862E+02  0.000E+00  0.000E+00  0.000E+00  1.03987E+03  2.288E+00  5.529E+01  5.593E-01  8.216E-01
   1   13    8     7     2    1.4862E+02  1.9895E+00   1.4663E+02  0.000E+00  0.000E+00  0.000E+00  1.03478E+03  2.279E+00  5.525E+01  6.147E-01  1.079E+00
   1   13    7     7     3    1.4663E+02  1.7356E+00   1.4490E+02  0.000E+00  0.000E+00  0.000E+00  1.02969E+03  2.269E+00  5.521E+01  5.584E-01  1.036E+00
   1   13    6     8     1    1.6816E+02  1.1650E+00   1.6699E+02  0.000E+00  0.000E+00  0.000E+00  1.02481E+03  2.936E+00  4.258E+01  4.339E-01  8.951E-01
   1   13    5     8     2    1.6699E+02  3.9833E-01   1.6659E+02  0.000E+00  0.000E+00  0.000E+00  1.01856E+03  2.931E+00  4.250E+01  4.331E-01  3.066E-01
   1   13    4     8     3    1.6659E+02 -1.6927E+00   1.6829E+02  0.000E+00  0.000E+00  0.000E+00  1.01231E+03  2.935E+00  4.256E+01  4.337E+00 -1.301E-01
   1   13    3     8     4    1.6829E+02 -3.2849E+00   1.7157E+02  0.000E+00  0.000E+00  0.000E+00  1.00608E+03  2.952E+00  4.280E+01  4.361E+00 -2.511E-01
   1   13    2     8     5    1.7157E+02 -2.4836E+00   1.7405E+02  0.000E+00  0.000E+00  0.000E+00  9.99845E+02  2.970E+00  4.307E+01  4.389E+00 -1.886E-01
   1   13    1     8     6    1.7405E+02 -1.9571E+00   1.7601E+02  0.000E+00  0.000E+00  0.000E+00  9.94860E+02  2.985E+00  4.328E+01  2.646E+00 -2.465E-01





UNSATURATED ZONE PACKAGE VOLUMETRIC BUDGET FOR  TIME STEP    30 STRESS PERIOD   46
  ------------------------------------------------------------------------------



     CUMULATIVE VOLUMES      L**3       RATES FOR THIS TIME STEP      L**3/T
     ------------------                 ------------------------

           IN:                                      IN:
           ---                                      ---
        INFILTRATION =  2005485535.2050          INFILTRATION =          12.0675

          OUT:                                     OUT:
          ----                                     ----
              UZF ET =  1715857040.0141                UZF ET =          12.0675
        UZF RECHARGE =   256518748.5652          UZF RECHARGE =          31.2085

            IN - OUT =    33109746.6257              IN - OUT =         -31.2085

          STORAGE:                                 STORAGE:
          --------                                 --------
      STORAGE CHANGE =    33109770.8983        STORAGE CHANGE =         -31.2085

 PERCENT DISCREPANCY IS DIFFERENCE BETWEEN IN-OUT MINUS CHANGE IN STORAGE
 DIVIDED BY THE AVERAGE OF IN AND OUT TIMES 100

 PERCENT DISCREPANCY =           0.00     PERCENT DISCREPANCY =           0.00






1
  VOLUMETRIC BUDGET FOR AGRICULTURAL FIELDS AT  END OF TIME STEP   30, STRESS PERIOD  46
  ------------------------------------------------------------------------------

     CUMULATIVE VOLUMES      L**3       RATES FOR THIS TIME STEP      L**3/T
     ------------------                 ------------------------

           IN:                                      IN:
           ---                                      ---
               AG WELLS  =  1905110912.0000                 AG WELLS  =          11.2200
      DIVERSION SEGMENTS =           0.0000        DIVERSION SEGMENTS =           0.0000
           GW IRRIGATION =           0.0000             GW IRRIGATION =           0.0000
           SW IRRIGATION =           0.0000             SW IRRIGATION =           0.0000
        SYSTEM LOSSES GW =           0.0000          SYSTEM LOSSES GW =           0.0000
        SYSTEM LOSSES SW =           0.0000          SYSTEM LOSSES SW =           0.0000

                TOTAL IN =  1905110912.0000                  TOTAL IN =          11.2200

          OUT:                                     OUT:
          ----                                     ----
               AG WELLS  =           0.0000                 AG WELLS  =           0.0000
      DIVERSION SEGMENTS =           0.0000        DIVERSION SEGMENTS =           0.0000
           GW IRRIGATION =  1905110912.0000             GW IRRIGATION =          11.2200
           SW IRRIGATION =           0.0000             SW IRRIGATION =           0.0000
        SYSTEM LOSSES GW =           0.0000          SYSTEM LOSSES GW =           0.0000
        SYSTEM LOSSES SW =           0.0000          SYSTEM LOSSES SW =           0.0000

               TOTAL OUT =  1905110912.0000                 TOTAL OUT =          11.2200

                IN - OUT =           0.0000                  IN - OUT =           0.0000

     PERCENT DISCREPANCY =           0.00         PERCENT DISCREPANCY =           0.00



1
  VOLUMETRIC BUDGET FOR ENTIRE MODEL AT END OF TIME STEP   30, STRESS PERIOD  46
  ------------------------------------------------------------------------------

     CUMULATIVE VOLUMES      L**3       RATES FOR THIS TIME STEP      L**3/T
     ------------------                 ------------------------

           IN:                                      IN:
           ---                                      ---
             STORAGE     =  2367387392.0000               STORAGE     =          17.1775
       CONSTANT HEAD     =           0.0000         CONSTANT HEAD     =           0.0000
     HEAD DEP BOUNDS     =    33908408.0000       HEAD DEP BOUNDS     =           0.2887
      STREAM LEAKAGE     =  1453047168.0000        STREAM LEAKAGE     =          12.4077
        UZF RECHARGE     =   256518768.0000          UZF RECHARGE     =          31.2085
               GW ET     =           0.0000                 GW ET     =           0.0000
     SURFACE LEAKAGE     =           0.0000       SURFACE LEAKAGE     =           0.0000
           AG WELLS      =           0.0000             AG WELLS      =           0.0000

                TOTAL IN =  4110861824.0000                  TOTAL IN =          61.0823

          OUT:                                     OUT:
          ----                                     ----
             STORAGE     =   958368640.0000               STORAGE     =          40.1545
       CONSTANT HEAD     =           0.0000         CONSTANT HEAD     =           0.0000
     HEAD DEP BOUNDS     =    34549952.0000       HEAD DEP BOUNDS     =           0.2888
      STREAM LEAKAGE     =  1195328000.0000        STREAM LEAKAGE     =           9.4183
        UZF RECHARGE     =           0.0000          UZF RECHARGE     =           0.0000
               GW ET     =    17516202.0000                 GW ET     =           0.0000
     SURFACE LEAKAGE     =           0.0000       SURFACE LEAKAGE     =           0.0000
           AG WELLS      =  1905110912.0000             AG WELLS      =          11.2200

               TOTAL OUT =  4110873600.0000                 TOTAL OUT =          61.0816

                IN - OUT =      -11776.0000                  IN - OUT =       6.9427E-04

     PERCENT DISCREPANCY =          -0.00         PERCENT DISCREPANCY =           0.00






         TIME SUMMARY AT END OF TIME STEP   30 IN STRESS PERIOD   46
                    SECONDS     MINUTES      HOURS       DAYS        YEARS
                    -----------------------------------------------------------
   TIME STEP LENGTH  87667.      1461.1      24.352      1.0147     2.77799E-03
 STRESS PERIOD TIME 2.63000E+06  43833.      730.56      30.440     8.33397E-02
         TOTAL TIME 1.18435E+08 1.97392E+06  32899.      1370.8      3.7530    
1
1
                            STRESS PERIOD NO.   47, LENGTH =   2630000.    
                            -----------------------------------------------

                              NUMBER OF TIME STEPS =    30

                               MULTIPLIER FOR DELT =     1.000

                            INITIAL TIME STEP SIZE =   87666.66    

 REUSING NON-PARAMETER GHB CELLS FROM LAST STRESS PERIOD

      2 GHB CELLS

 REUSING STREAM SEGMENT DATA FROM LAST STRESS PERIOD



            AREAL INFILTRATION RATE
 READING ON UNIT   19 WITH FORMAT: (FREE)              

            1           2           3           4           5           6           7           8           9          10
 ........................................................................................................................
   1   1.0000E-10  2.0000E-10   0.000       0.000       0.000       0.000       0.000       0.000       0.000       0.000    
   2   2.0000E-10  1.0000E-10  2.0000E-10   0.000       0.000      8.0000E-10  8.0000E-10  5.0000E-10   0.000       0.000    
   3    0.000      5.0000E-10  1.0000E-10  1.0000E-10  8.0000E-10  8.0000E-10  5.0000E-10  5.0000E-10   0.000       0.000    
   4   8.0000E-10  5.0000E-10  1.0000E-10  1.0000E-10  1.0000E-10  1.0000E-10  1.0000E-10  1.0000E-10  2.0000E-10   0.000    
   5   8.0000E-10  5.0000E-10  1.0000E-10  1.0000E-10  1.0000E-10  1.0000E-10  1.0000E-10  1.0000E-10  1.0000E-10  1.0000E-10
   6   8.0000E-10  5.0000E-10  5.0000E-10  2.0000E-10  2.0000E-10  1.0000E-10  1.0000E-10  1.0000E-10  1.0000E-10  5.0000E-10
   7   8.0000E-10  5.0000E-10  5.0000E-10  2.0000E-10  2.0000E-10  1.0000E-10  1.0000E-10  2.0000E-10  2.0000E-10   0.000    
   8    0.000      5.0000E-10  5.0000E-10  2.0000E-10  2.0000E-10  1.0000E-10  1.0000E-10  2.0000E-10  5.0000E-10   0.000    
   9    0.000      5.0000E-10  5.0000E-10  2.0000E-10  2.0000E-10  1.0000E-10  1.0000E-10  2.0000E-10  5.0000E-10   0.000    
  10    0.000      5.0000E-10  5.0000E-10  2.0000E-10  2.0000E-10  1.0000E-10  1.0000E-10  2.0000E-10  5.0000E-10  8.0000E-10
  11    0.000      1.0000E-10  1.0000E-10  1.0000E-10  1.0000E-10  1.0000E-10  1.0000E-10  2.0000E-10  5.0000E-10   0.000    
  12   1.0000E-10  1.0000E-10  1.0000E-10  1.0000E-10  1.0000E-10  1.0000E-10  1.0000E-10  1.0000E-10  2.0000E-10   0.000    
  13   1.0000E-10  1.0000E-10  2.0000E-10  2.0000E-10  2.0000E-10  2.0000E-10  2.0000E-10  1.0000E-10  1.0000E-10   0.000    
  14    0.000      2.0000E-10  5.0000E-10  5.0000E-10  5.0000E-10  5.0000E-10  5.0000E-10  2.0000E-10  1.0000E-10   0.000    
  15    0.000       0.000      8.0000E-10  8.0000E-10  8.0000E-10  8.0000E-10   0.000       0.000       0.000       0.000    

                  ET RATE =  5.000000E-09

 USING ET EXTINCTION DEPTH FROM PREVIOUS STRESS PERIOD. CURRENT PERIOD IS:      47

 USING EXTINCTION WATER CONTENT FROM PREVIOUS STRESS PERIOD. CURRENT PERIOD IS:      47

 USING AIR ENTRY PRESSURE FROM PREVIOUS STRESS PERIOD. CURRENT PERIOD IS:      47

 USING ROOT PRESSURE HEAD FROM PREVIOUS STRESS PERIOD. CURRENT PERIOD IS:      47

 USING ROOT ACTIVITY FROM PREVIOUS STRESS PERIOD. CURRENT PERIOD IS:      47

 PROCESSING AG STRESS PERIOD DATA

 READING AG STRESS PERIOD DATA

 READING IRRIGATION WELL

 END PROCESSING AG STRESS PERIOD DATA OPTIONS
 
 SOLVING FOR HEAD 
                                                   Max.-Head-Change                         Max.-Flux-Residual
  Residual-Control   Outer-Iter.   Inner-Iter.     Column Row Layer    Maximum-Head-Change  Column Row Layer    Maximum-Flux-Residual          L2-NORM 
          0                 1           2             4    7     1       0.1726402306E+00       4    7    1         0.9068726824E+01      0.1862189263E+02
          0                 2           2             4    8     1       0.3814335439E-01       4    8    1         0.2058476279E+01      0.3018181579E+01
          0                 3           2             5    8     1      -0.2696334803E-02       5    8    1        -0.1545603250E+00      0.2018181023E+00
          0                 4           1             5    8     1       0.1834791879E-03       5    8    1         0.1080813700E-01      0.1324443354E-01
          0                 5           1             5    8     1      -0.7292162981E-05       5    8    1        -0.4425539100E-03      0.5768409849E-03

    ------------------------------------------------
       NWT REQUIRED            5 OUTER ITERATIONS 
       AND A TOTAL OF          8 INNER ITERATIONS.
    ------------------------------------------------

 NO OUTPUT CONTROL FOR STRESS PERIOD   47   TIME STEP    1
 
 SOLVING FOR HEAD 
                                                   Max.-Head-Change                         Max.-Flux-Residual
  Residual-Control   Outer-Iter.   Inner-Iter.     Column Row Layer    Maximum-Head-Change  Column Row Layer    Maximum-Flux-Residual          L2-NORM 
          0                 1           2             4    7     1       0.1713824073E+00       4    7    1         0.9006316661E+01      0.1829992806E+02
          0                 2           2             5    7     1       0.3369650244E-01       5    7    1         0.1820644685E+01      0.3146601855E+01
          0                 3           2             5    7     1       0.9168793238E-02       5    7    1         0.4922171940E+00      0.7815004922E+00
          0                 4           2             5    7     1       0.2494685768E-02       5    7    1         0.1341280350E+00      0.2115382398E+00
          0                 5           2             5    7     1       0.6787326209E-03       5    7    1         0.3648553926E-01      0.5747242308E-01
          0                 6           2             5    7     1       0.1846560471E-03       5    7    1         0.9926880321E-02      0.1562374013E-01
          0                 7           1             5    7     1       0.5023573784E-04       5    7    1         0.2700665300E-02      0.4247615742E-02

    ------------------------------------------------
       NWT REQUIRED            7 OUTER ITERATIONS 
       AND A TOTAL OF         13 INNER ITERATIONS.
    ------------------------------------------------

 NO OUTPUT CONTROL FOR STRESS PERIOD   47   TIME STEP    2
 
 SOLVING FOR HEAD 
                                                   Max.-Head-Change                         Max.-Flux-Residual
  Residual-Control   Outer-Iter.   Inner-Iter.     Column Row Layer    Maximum-Head-Change  Column Row Layer    Maximum-Flux-Residual          L2-NORM 
          0                 1           2             4    7     1       0.1677389238E+00       4    7    1         0.8814976937E+01      0.1712658416E+02
          0                 2           2             5    6     1       0.1462244379E-01       5    6    1         0.8003348347E+00      0.1305592073E+01
          0                 3           2             5    6     1      -0.1409948875E-02       5    6    1        -0.7996225433E-01      0.1222907302E+00
          0                 4           2             4    6     1       0.1511141156E-03       4    6    1         0.8098316221E-02      0.1114127050E-01
          0                 5           1             4    6     1       0.4033022816E-04       4    6    1         0.2204227594E-02      0.2223313792E-02

    ------------------------------------------------
       NWT REQUIRED            5 OUTER ITERATIONS 
       AND A TOTAL OF          9 INNER ITERATIONS.
    ------------------------------------------------

 NO OUTPUT CONTROL FOR STRESS PERIOD   47   TIME STEP    3
 
 SOLVING FOR HEAD 
                                                   Max.-Head-Change                         Max.-Flux-Residual
  Residual-Control   Outer-Iter.   Inner-Iter.     Column Row Layer    Maximum-Head-Change  Column Row Layer    Maximum-Flux-Residual          L2-NORM 
          0                 1           2             4    7     1       0.1651262975E+00       4    7    1         0.8679643142E+01      0.1678661335E+02
          0                 2           2             4    6     1       0.3974776036E-01       4    6    1         0.2189712023E+01      0.2643372081E+01
          0                 3           2             4    6     1       0.7942731854E-02       4    6    1         0.4314236817E+00      0.4439158606E+00
          0                 4           2             4    6     1      -0.7722075404E-03       4    6    1        -0.4323279815E-01      0.4340951413E-01
          0                 5           1             4    6     1       0.5254616748E-04       4    6    1         0.3028575753E-02      0.3029128296E-02

    ------------------------------------------------
       NWT REQUIRED            5 OUTER ITERATIONS 
       AND A TOTAL OF          9 INNER ITERATIONS.
    ------------------------------------------------

 NO OUTPUT CONTROL FOR STRESS PERIOD   47   TIME STEP    4
 
 SOLVING FOR HEAD 
                                                   Max.-Head-Change                         Max.-Flux-Residual
  Residual-Control   Outer-Iter.   Inner-Iter.     Column Row Layer    Maximum-Head-Change  Column Row Layer    Maximum-Flux-Residual          L2-NORM 
          0                 1           2             4    7     1       0.1640145479E+00       4    7    1         0.8627808092E+01      0.1646795850E+02
          0                 2           2             4    7     1      -0.1586916982E-01       4    7    1        -0.8623449884E+00      0.1535625283E+01
          0                 3           2             4    8     1      -0.1760583234E-02       4    8    1        -0.9915376114E-01      0.1443894104E+00
          0                 4           2             4    8     1      -0.5081745309E-03       4    8    1        -0.2830133698E-01      0.2862821069E-01
          0                 5           2             4    8     1      -0.1466762975E-03       4    8    1        -0.8180065006E-02      0.8180232034E-02
          0                 6           1             4    8     1      -0.4233473684E-04       4    8    1        -0.2360822870E-02      0.2360847071E-02

    ------------------------------------------------
       NWT REQUIRED            6 OUTER ITERATIONS 
       AND A TOTAL OF         11 INNER ITERATIONS.
    ------------------------------------------------

 NO OUTPUT CONTROL FOR STRESS PERIOD   47   TIME STEP    5
 
 SOLVING FOR HEAD 
                                                   Max.-Head-Change                         Max.-Flux-Residual
  Residual-Control   Outer-Iter.   Inner-Iter.     Column Row Layer    Maximum-Head-Change  Column Row Layer    Maximum-Flux-Residual          L2-NORM 
          0                 1           2             4    7     1       0.1619927119E+00       4    7    1         0.8523764135E+01      0.1619358099E+02
          0                 2           2             4    8     1       0.3370022369E-01       4    8    1         0.1825793517E+01      0.2243533422E+01
          0                 3           2             4    8     1       0.9095964167E-02       4    8    1         0.4915941505E+00      0.5162126116E+00
          0                 4           2             4    8     1       0.2455668699E-02       4    8    1         0.1327597128E+00      0.1381788990E+00
          0                 5           2             4    8     1       0.6631227930E-03       4    8    1         0.3584129283E-01      0.3743267093E-01
          0                 6           2             4    8     1       0.1791099352E-03       4    8    1         0.9679220785E-02      0.1014870679E-01
          0                 7           1             4    8     1       0.4838886012E-04       4    8    1         0.2614524745E-02      0.2752353523E-02

    ------------------------------------------------
       NWT REQUIRED            7 OUTER ITERATIONS 
       AND A TOTAL OF         13 INNER ITERATIONS.
    ------------------------------------------------

 NO OUTPUT CONTROL FOR STRESS PERIOD   47   TIME STEP    6
 
 SOLVING FOR HEAD 
                                                   Max.-Head-Change                         Max.-Flux-Residual
  Residual-Control   Outer-Iter.   Inner-Iter.     Column Row Layer    Maximum-Head-Change  Column Row Layer    Maximum-Flux-Residual          L2-NORM 
          0                 1           2             4    7     1       0.1593133561E+00       4    7    1         0.8384361117E+01      0.1589213116E+02
          0                 2           2             4    7     1       0.3961645649E-01       4    7    1         0.2152730209E+01      0.2473452506E+01
          0                 3           2             4    7     1      -0.3789518846E-02       4    7    1        -0.2148622545E+00      0.2825384950E+00
          0                 4           2             5    7     1       0.7734269002E-03       5    7    1         0.4251624560E-01      0.4527384755E-01
          0                 5           2             5    7     1       0.2027445911E-03       5    7    1         0.1120513462E-01      0.1122095681E-01
          0                 6           1             5    7     1       0.5314701225E-04       5    7    1         0.2934698571E-02      0.2935261267E-02

    ------------------------------------------------
       NWT REQUIRED            6 OUTER ITERATIONS 
       AND A TOTAL OF         11 INNER ITERATIONS.
    ------------------------------------------------

 NO OUTPUT CONTROL FOR STRESS PERIOD   47   TIME STEP    7
 
 SOLVING FOR HEAD 
                                                   Max.-Head-Change                         Max.-Flux-Residual
  Residual-Control   Outer-Iter.   Inner-Iter.     Column Row Layer    Maximum-Head-Change  Column Row Layer    Maximum-Flux-Residual          L2-NORM 
          0                 1           2             4    7     1       0.1553979198E+00       4    7    1         0.8176819910E+01      0.1560177190E+02
          0                 2           2             5    7     1       0.3203960625E-01       5    7    1         0.1772294228E+01      0.2285071531E+01
          0                 3           2             5    7     1       0.7963772369E-02       5    7    1         0.4346457791E+00      0.5114651958E+00
          0                 4           2             5    6     1       0.1263054005E-02       5    6    1         0.7032750518E-01      0.8276392861E-01
          0                 5           2             5    6     1       0.3319178402E-03       5    6    1         0.1824804688E-01      0.1852201138E-01
          0                 6           1             5    6     1       0.8727242300E-04       5    6    1         0.4809957400E-02      0.4823705776E-02

    ------------------------------------------------
       NWT REQUIRED            6 OUTER ITERATIONS 
       AND A TOTAL OF         11 INNER ITERATIONS.
    ------------------------------------------------

 NO OUTPUT CONTROL FOR STRESS PERIOD   47   TIME STEP    8
 
 SOLVING FOR HEAD 
                                                   Max.-Head-Change                         Max.-Flux-Residual
  Residual-Control   Outer-Iter.   Inner-Iter.     Column Row Layer    Maximum-Head-Change  Column Row Layer    Maximum-Flux-Residual          L2-NORM 
          0                 1           2             4    7     1       0.1543783873E+00       4    7    1         0.8128785757E+01      0.1532081029E+02
          0                 2           2             4    6     1       0.3635587138E-01       4    6    1         0.1971629720E+01      0.2789673110E+01
          0                 3           2             4    6     1       0.9843563624E-02       4    6    1         0.5304185854E+00      0.6388349835E+00
          0                 4           2             4    6     1       0.2626896096E-02       4    6    1         0.1437896880E+00      0.1479152959E+00
          0                 5           2             4    6     1       0.7010234309E-03       4    6    1         0.3817963532E-01      0.3826122246E-01
          0                 6           2             4    6     1       0.1870779576E-03       4    6    1         0.1020053476E-01      0.1020081401E-01
          0                 7           1             4    6     1       0.4992437473E-04       4    6    1         0.2721674815E-02      0.2721721989E-02

    ------------------------------------------------
       NWT REQUIRED            7 OUTER ITERATIONS 
       AND A TOTAL OF         13 INNER ITERATIONS.
    ------------------------------------------------

 NO OUTPUT CONTROL FOR STRESS PERIOD   47   TIME STEP    9
 
 SOLVING FOR HEAD 
                                                   Max.-Head-Change                         Max.-Flux-Residual
  Residual-Control   Outer-Iter.   Inner-Iter.     Column Row Layer    Maximum-Head-Change  Column Row Layer    Maximum-Flux-Residual          L2-NORM 
          0                 1           2             4    7     1       0.1532094640E+00       4    7    1         0.8071215724E+01      0.1504833499E+02
          0                 2           2             4    7     1      -0.1484344046E-01       4    7    1        -0.8067162070E+00      0.1421768665E+01
          0                 3           2             4    7     1       0.1010020417E-02       4    7    1         0.5642748368E-01      0.9945286254E-01
          0                 4           1             4    7     1      -0.4013952741E-04       4    7    1        -0.2305008402E-02      0.4062837723E-02

    ------------------------------------------------
       NWT REQUIRED            4 OUTER ITERATIONS 
       AND A TOTAL OF          7 INNER ITERATIONS.
    ------------------------------------------------

 NO OUTPUT CONTROL FOR STRESS PERIOD   47   TIME STEP   10
 
 SOLVING FOR HEAD 
                                                   Max.-Head-Change                         Max.-Flux-Residual
  Residual-Control   Outer-Iter.   Inner-Iter.     Column Row Layer    Maximum-Head-Change  Column Row Layer    Maximum-Flux-Residual          L2-NORM 
          0                 1           2             4    7     1       0.1501012855E+00       4    7    1         0.7963079262E+01      0.1369270483E+02
          0                 2           2             4    7     1       0.2864617326E-01       4    7    1         0.1579551148E+01      0.1932505510E+01
          0                 3           2             4    7     1       0.7664267577E-02       4    7    1         0.4156394714E+00      0.4230312787E+00
          0                 4           1             4    7     1       0.2050569123E-02       4    7    1         0.1116411949E+00      0.1116761754E+00
          0                 5           1             4    7     1       0.5486280020E-03       4    7    1         0.2985167546E-01      0.2985264579E-01
          0                 6           1             4    7     1       0.1467849669E-03       4    7    1         0.7987066602E-02      0.7987274790E-02
          0                 7           1             4    7     1       0.3927219642E-04       4    7    1         0.2136915450E-02      0.2136974859E-02

    ------------------------------------------------
       NWT REQUIRED            7 OUTER ITERATIONS 
       AND A TOTAL OF         10 INNER ITERATIONS.
    ------------------------------------------------

 NO OUTPUT CONTROL FOR STRESS PERIOD   47   TIME STEP   11
 
 SOLVING FOR HEAD 
                                                   Max.-Head-Change                         Max.-Flux-Residual
  Residual-Control   Outer-Iter.   Inner-Iter.     Column Row Layer    Maximum-Head-Change  Column Row Layer    Maximum-Flux-Residual          L2-NORM 
          0                 1           2             4    7     1       0.1431514183E+00       4    7    1         0.7655814138E+01      0.1215410662E+02
          0                 2           2             4    7     1       0.1196769367E-01       4    7    1         0.6647871939E+00      0.1154222506E+01
          0                 3           2             4    7     1      -0.1163522269E-02       4    7    1        -0.6605184532E-01      0.9357010299E-01
          0                 4           1             4    7     1       0.7917471217E-04       4    7    1         0.4593715277E-02      0.5345956386E-02

    ------------------------------------------------
       NWT REQUIRED            4 OUTER ITERATIONS 
       AND A TOTAL OF          7 INNER ITERATIONS.
    ------------------------------------------------

 NO OUTPUT CONTROL FOR STRESS PERIOD   47   TIME STEP   12
 
 SOLVING FOR HEAD 
                                                   Max.-Head-Change                         Max.-Flux-Residual
  Residual-Control   Outer-Iter.   Inner-Iter.     Column Row Layer    Maximum-Head-Change  Column Row Layer    Maximum-Flux-Residual          L2-NORM 
          0                 1           2             4    7     1       0.1380039896E+00       4    7    1         0.7372935685E+01      0.1187911419E+02
          0                 2           2             4    7     1      -0.1358862782E-01       4    7    1        -0.7476580971E+00      0.1192777574E+01
          0                 3           2             4    7     1       0.9246428600E-03       4    7    1         0.5229687720E-01      0.8343662412E-01
          0                 4           1             4    7     1      -0.3674705689E-04       4    7    1        -0.2136310388E-02      0.3408650802E-02

    ------------------------------------------------
       NWT REQUIRED            4 OUTER ITERATIONS 
       AND A TOTAL OF          7 INNER ITERATIONS.
    ------------------------------------------------

 NO OUTPUT CONTROL FOR STRESS PERIOD   47   TIME STEP   13
 
 SOLVING FOR HEAD 
                                                   Max.-Head-Change                         Max.-Flux-Residual
  Residual-Control   Outer-Iter.   Inner-Iter.     Column Row Layer    Maximum-Head-Change  Column Row Layer    Maximum-Flux-Residual          L2-NORM 
          0                 1           2             4    7     1       0.1339325315E+00       4    7    1         0.7161127657E+01      0.1058365389E+02
          0                 2           2             4    6     1       0.1482793110E-01       4    6    1         0.8209916025E+00      0.1175493542E+01
          0                 3           2             4    6     1       0.3956835230E-02       4    6    1         0.2148593652E+00      0.2228686063E+00
          0                 4           2             4    6     1       0.1055887631E-02       4    6    1         0.5760087522E-01      0.5764466214E-01
          0                 5           2             4    6     1       0.2817650995E-03       4    6    1         0.1536046486E-01      0.1536094828E-01
          0                 6           1             4    6     1       0.7518942643E-04       4    6    1         0.4099033584E-02      0.4099149139E-02

    ------------------------------------------------
       NWT REQUIRED            6 OUTER ITERATIONS 
       AND A TOTAL OF         11 INNER ITERATIONS.
    ------------------------------------------------

 NO OUTPUT CONTROL FOR STRESS PERIOD   47   TIME STEP   14
 
 SOLVING FOR HEAD 
                                                   Max.-Head-Change                         Max.-Flux-Residual
  Residual-Control   Outer-Iter.   Inner-Iter.     Column Row Layer    Maximum-Head-Change  Column Row Layer    Maximum-Flux-Residual          L2-NORM 
          0                 1           2             4    7     1       0.1306459437E+00       4    7    1         0.6983620859E+01      0.1030746412E+02
          0                 2           2             4    6     1       0.3069592682E-01       4    6    1         0.1686333259E+01      0.1878255569E+01
          0                 3           2             4    6     1       0.4642466507E-02       4    6    1         0.2522202830E+00      0.2589442724E+00
          0                 4           2             4    6     1      -0.4513490608E-03       4    6    1        -0.2527297933E-01      0.2536744135E-01
          0                 5           1             4    6     1       0.3071282244E-04       4    6    1         0.1770363532E-02      0.1770689290E-02

    ------------------------------------------------
       NWT REQUIRED            5 OUTER ITERATIONS 
       AND A TOTAL OF          9 INNER ITERATIONS.
    ------------------------------------------------

 NO OUTPUT CONTROL FOR STRESS PERIOD   47   TIME STEP   15
 
 SOLVING FOR HEAD 
                                                   Max.-Head-Change                         Max.-Flux-Residual
  Residual-Control   Outer-Iter.   Inner-Iter.     Column Row Layer    Maximum-Head-Change  Column Row Layer    Maximum-Flux-Residual          L2-NORM 
          0                 1           2             4    6     1       0.1084274377E+00       4    6    1         0.5848555634E+01      0.7692420780E+01
          0                 2           2             4    6     1      -0.1054183492E-01       4    6    1        -0.5845713534E+00      0.7689181008E+00
          0                 3           2             4    6     1       0.7173305838E-03       4    6    1         0.4088971164E-01      0.5379126548E-01
          0                 4           1             4    6     1      -0.2850848344E-04       4    6    1        -0.1670346881E-02      0.2197828837E-02

    ------------------------------------------------
       NWT REQUIRED            4 OUTER ITERATIONS 
       AND A TOTAL OF          7 INNER ITERATIONS.
    ------------------------------------------------

 NO OUTPUT CONTROL FOR STRESS PERIOD   47   TIME STEP   16
 
 SOLVING FOR HEAD 
                                                   Max.-Head-Change                         Max.-Flux-Residual
  Residual-Control   Outer-Iter.   Inner-Iter.     Column Row Layer    Maximum-Head-Change  Column Row Layer    Maximum-Flux-Residual          L2-NORM 
          0                 1           2             4    6     1       0.1045289032E+00       4    6    1         0.5633619809E+01      0.7516112219E+01
          0                 2           2             4    6     1      -0.1016278699E-01       4    6    1        -0.5630872534E+00      0.7512949634E+00
          0                 3           2             4    6     1       0.6915376581E-03       4    6    1         0.3938692047E-01      0.5255852604E-01
          0                 4           1             4    6     1      -0.2748339051E-04       4    6    1        -0.1608956130E-02      0.2147473533E-02

    ------------------------------------------------
       NWT REQUIRED            4 OUTER ITERATIONS 
       AND A TOTAL OF          7 INNER ITERATIONS.
    ------------------------------------------------

 NO OUTPUT CONTROL FOR STRESS PERIOD   47   TIME STEP   17
 
 SOLVING FOR HEAD 
                                                   Max.-Head-Change                         Max.-Flux-Residual
  Residual-Control   Outer-Iter.   Inner-Iter.     Column Row Layer    Maximum-Head-Change  Column Row Layer    Maximum-Flux-Residual          L2-NORM 
          0                 1           2             4    6     1       0.1008524291E+00       4    6    1         0.5431065433E+01      0.7352394685E+01
          0                 2           2             4    6     1      -0.9805329968E-02       4    6    1        -0.5428407763E+00      0.7349304064E+00
          0                 3           2             4    6     1       0.6672139259E-03       4    6    1         0.3797070028E-01      0.5141382090E-01
          0                 4           1             4    6     1      -0.2651668799E-04       4    6    1        -0.1551101941E-02      0.2100704919E-02

    ------------------------------------------------
       NWT REQUIRED            4 OUTER ITERATIONS 
       AND A TOTAL OF          7 INNER ITERATIONS.
    ------------------------------------------------

 NO OUTPUT CONTROL FOR STRESS PERIOD   47   TIME STEP   18
 
 SOLVING FOR HEAD 
                                                   Max.-Head-Change                         Max.-Flux-Residual
  Residual-Control   Outer-Iter.   Inner-Iter.     Column Row Layer    Maximum-Head-Change  Column Row Layer    Maximum-Flux-Residual          L2-NORM 
          0                 1           2             4    6     1       0.9738295011E-01       4    6    1         0.5240046541E+01      0.7199972595E+01
          0                 2           2             4    6     1      -0.9467999082E-02       4    6    1        -0.5237473628E+00      0.7196949394E+00
          0                 3           2             4    6     1       0.6442597149E-03       4    6    1         0.3663513621E-01      0.5034810572E-01
          0                 4           1             4    6     1      -0.2560441516E-04       4    6    1        -0.1496542681E-02      0.2057169672E-02

    ------------------------------------------------
       NWT REQUIRED            4 OUTER ITERATIONS 
       AND A TOTAL OF          7 INNER ITERATIONS.
    ------------------------------------------------

 NO OUTPUT CONTROL FOR STRESS PERIOD   47   TIME STEP   19
 
 SOLVING FOR HEAD 
                                                   Max.-Head-Change                         Max.-Flux-Residual
  Residual-Control   Outer-Iter.   Inner-Iter.     Column Row Layer    Maximum-Head-Change  Column Row Layer    Maximum-Flux-Residual          L2-NORM 
          0                 1           2             4    7     1       0.4352244669E-01       4    7    1         0.2312541470E+01      0.4942926400E+01
          0                 2           2             4    7     1      -0.4231323499E-02       4    7    1        -0.2311332621E+00      0.4941312384E+00
          0                 3           2             4    7     1       0.2879222325E-03       4    7    1         0.1616723742E-01      0.3457337299E-01
          0                 4           1             4    7     1      -0.1144248062E-04       4    7    1        -0.6604199432E-03      0.1412977361E-02

    ------------------------------------------------
       NWT REQUIRED            4 OUTER ITERATIONS 
       AND A TOTAL OF          7 INNER ITERATIONS.
    ------------------------------------------------

 NO OUTPUT CONTROL FOR STRESS PERIOD   47   TIME STEP   20
 
 SOLVING FOR HEAD 
                                                   Max.-Head-Change                         Max.-Flux-Residual
  Residual-Control   Outer-Iter.   Inner-Iter.     Column Row Layer    Maximum-Head-Change  Column Row Layer    Maximum-Flux-Residual          L2-NORM 
          0                 1           2             4    7     1       0.4258982449E-01       4    7    1         0.2261313069E+01      0.4867635157E+01
          0                 2           2             4    7     1      -0.4140649811E-02       4    7    1        -0.2260129297E+00      0.4866033743E+00
          0                 3           2             4    7     1       0.2817521731E-03       4    7    1         0.1580907403E-01      0.3404654815E-01
          0                 4           1             4    7     1      -0.1119726332E-04       4    7    1        -0.6457886345E-03      0.1391439451E-02

    ------------------------------------------------
       NWT REQUIRED            4 OUTER ITERATIONS 
       AND A TOTAL OF          7 INNER ITERATIONS.
    ------------------------------------------------

 NO OUTPUT CONTROL FOR STRESS PERIOD   47   TIME STEP   21
 
 SOLVING FOR HEAD 
                                                   Max.-Head-Change                         Max.-Flux-Residual
  Residual-Control   Outer-Iter.   Inner-Iter.     Column Row Layer    Maximum-Head-Change  Column Row Layer    Maximum-Flux-Residual          L2-NORM 
          0                 1           2             4    7     1       0.4170649684E-01       4    7    1         0.2212849070E+01      0.4796041911E+01
          0                 2           2             4    7     1      -0.4054768816E-02       4    7    1        -0.2211689057E+00      0.4794452715E+00
          0                 3           2             4    7     1       0.2759082460E-03       4    7    1         0.1547023847E-01      0.3354560120E-01
          0                 4           1             4    7     1      -0.1096500813E-04       4    7    1        -0.6319468957E-03      0.1370957592E-02

    ------------------------------------------------
       NWT REQUIRED            4 OUTER ITERATIONS 
       AND A TOTAL OF          7 INNER ITERATIONS.
    ------------------------------------------------

 NO OUTPUT CONTROL FOR STRESS PERIOD   47   TIME STEP   22
 
 SOLVING FOR HEAD 
                                                   Max.-Head-Change                         Max.-Flux-Residual
  Residual-Control   Outer-Iter.   Inner-Iter.     Column Row Layer    Maximum-Head-Change  Column Row Layer    Maximum-Flux-Residual          L2-NORM 
          0                 1           2             4    7     1       0.4086903292E-01       4    7    1         0.2166955432E+01      0.4727820952E+01
          0                 2           2             4    7     1      -0.3973346955E-02       4    7    1        -0.2165817952E+00      0.4726243820E+00
          0                 3           2             4    7     1       0.2703677537E-03       4    7    1         0.1514937410E-01      0.3306852008E-01
          0                 4           1             4    7     1      -0.1074481255E-04       4    7    1        -0.6188393218E-03      0.1357996582E-02

    ------------------------------------------------
       NWT REQUIRED            4 OUTER ITERATIONS 
       AND A TOTAL OF          7 INNER ITERATIONS.
    ------------------------------------------------

 NO OUTPUT CONTROL FOR STRESS PERIOD   47   TIME STEP   23
 
 SOLVING FOR HEAD 
                                                   Max.-Head-Change                         Max.-Flux-Residual
  Residual-Control   Outer-Iter.   Inner-Iter.     Column Row Layer    Maximum-Head-Change  Column Row Layer    Maximum-Flux-Residual          L2-NORM 
          0                 1           2             4    7     1       0.4007414862E-01       4    7    1         0.2123447016E+01      0.4662669856E+01
          0                 2           2             4    7     1      -0.3896064928E-02       4    7    1        -0.2122330935E+00      0.4661104586E+00
          0                 3           2             4    7     1       0.2651089680E-03       4    7    1         0.1484518644E-01      0.3261241411E-01
          0                 4           1             4    7     1      -0.1053581289E-04       4    7    1        -0.6064130218E-03      0.1332807206E-02

    ------------------------------------------------
       NWT REQUIRED            4 OUTER ITERATIONS 
       AND A TOTAL OF          7 INNER ITERATIONS.
    ------------------------------------------------

 NO OUTPUT CONTROL FOR STRESS PERIOD   47   TIME STEP   24
 
 SOLVING FOR HEAD 
                                                   Max.-Head-Change                         Max.-Flux-Residual
  Residual-Control   Outer-Iter.   Inner-Iter.     Column Row Layer    Maximum-Head-Change  Column Row Layer    Maximum-Flux-Residual          L2-NORM 
          0                 1           2             4    7     1       0.3931869696E-01       4    7    1         0.2082146287E+01      0.4600323277E+01
          0                 2           2             4    7     1      -0.3822616771E-02       4    7    1        -0.2081050554E+00      0.4598769649E+00
          0                 3           2             4    7     1       0.2601110682E-03       4    7    1         0.1455643424E-01      0.3217618992E-01
          0                 4           1             4    7     1      -0.1033718232E-04       4    7    1        -0.5946172973E-03      0.1314974834E-02

    ------------------------------------------------
       NWT REQUIRED            4 OUTER ITERATIONS 
       AND A TOTAL OF          7 INNER ITERATIONS.
    ------------------------------------------------

 NO OUTPUT CONTROL FOR STRESS PERIOD   47   TIME STEP   25
 
 SOLVING FOR HEAD 
                                                   Max.-Head-Change                         Max.-Flux-Residual
  Residual-Control   Outer-Iter.   Inner-Iter.     Column Row Layer    Maximum-Head-Change  Column Row Layer    Maximum-Flux-Residual          L2-NORM 
          0                 1           2             4    7     1       0.3859990843E-01       4    7    1         0.2042897338E+01      0.4540543321E+01
          0                 2           2             4    7     1      -0.3752733215E-02       4    7    1        -0.2041820980E+00      0.4539001239E+00
          0                 3           2             4    7     1       0.2553557318E-03       4    7    1         0.1428202748E-01      0.3175792905E-01
          0                 4           1             4    7     1      -0.1014819196E-04       4    7    1        -0.5834075955E-03      0.1297873255E-02

    ------------------------------------------------
       NWT REQUIRED            4 OUTER ITERATIONS 
       AND A TOTAL OF          7 INNER ITERATIONS.
    ------------------------------------------------

 NO OUTPUT CONTROL FOR STRESS PERIOD   47   TIME STEP   26
 
 SOLVING FOR HEAD 
                                                   Max.-Head-Change                         Max.-Flux-Residual
  Residual-Control   Outer-Iter.   Inner-Iter.     Column Row Layer    Maximum-Head-Change  Column Row Layer    Maximum-Flux-Residual          L2-NORM 
          0                 1           2             4    7     1       0.3791510778E-01       4    7    1         0.2005549314E+01      0.4483107825E+01
          0                 2           2             4    7     1      -0.3686154160E-02       4    7    1        -0.2004491429E+00      0.4481577147E+00
          0                 3           2             4    7     1       0.2508252588E-03       4    7    1         0.1402091138E-01      0.3135606811E-01
          0                 4           1             4    7     1      -0.9968138268E-05       4    7    1        -0.5727408363E-03      0.1281826944E-02

    ------------------------------------------------
       NWT REQUIRED            4 OUTER ITERATIONS 
       AND A TOTAL OF          7 INNER ITERATIONS.
    ------------------------------------------------

 NO OUTPUT CONTROL FOR STRESS PERIOD   47   TIME STEP   27
 
 SOLVING FOR HEAD 
                                                   Max.-Head-Change                         Max.-Flux-Residual
  Residual-Control   Outer-Iter.   Inner-Iter.     Column Row Layer    Maximum-Head-Change  Column Row Layer    Maximum-Flux-Residual          L2-NORM 
          0                 1           2             4    7     1       0.3726182789E-01       4    7    1         0.1969963509E+01      0.4427829031E+01
          0                 2           2             4    7     1      -0.3622639736E-02       4    7    1        -0.1968923259E+00      0.4426309627E+00
          0                 3           2             4    7     1       0.2465033274E-03       4    7    1         0.1377211618E-01      0.3096930735E-01
          0                 4           1             4    7     1      -0.9796373069E-05       4    7    1        -0.5625774259E-03      0.1265637984E-02

    ------------------------------------------------
       NWT REQUIRED            4 OUTER ITERATIONS 
       AND A TOTAL OF          7 INNER ITERATIONS.
    ------------------------------------------------

 NO OUTPUT CONTROL FOR STRESS PERIOD   47   TIME STEP   28
 
 SOLVING FOR HEAD 
                                                   Max.-Head-Change                         Max.-Flux-Residual
  Residual-Control   Outer-Iter.   Inner-Iter.     Column Row Layer    Maximum-Head-Change  Column Row Layer    Maximum-Flux-Residual          L2-NORM 
          0                 1           2             4    7     1       0.3663807051E-01       4    7    1         0.1936026528E+01      0.4374546095E+01
          0                 2           2             4    7     1      -0.3561995664E-02       4    7    1        -0.1935003131E+00      0.4373037999E+00
          0                 3           2             4    7     1       0.2423767162E-03       4    7    1         0.1353484900E-01      0.3059652146E-01
          0                 4           1             4    7     1      -0.9632370924E-05       4    7    1        -0.5528849554E-03      0.1250398827E-02

    ------------------------------------------------
       NWT REQUIRED            4 OUTER ITERATIONS 
       AND A TOTAL OF          7 INNER ITERATIONS.
    ------------------------------------------------

 NO OUTPUT CONTROL FOR STRESS PERIOD   47   TIME STEP   29
 
 SOLVING FOR HEAD 
                                                   Max.-Head-Change                         Max.-Flux-Residual
  Residual-Control   Outer-Iter.   Inner-Iter.     Column Row Layer    Maximum-Head-Change  Column Row Layer    Maximum-Flux-Residual          L2-NORM 
          0                 1           2             4    7     1       0.3604172387E-01       4    7    1         0.1903620242E+01      0.4323089075E+01
          0                 2           2             4    7     1      -0.3504016624E-02       4    7    1        -0.1902612974E+00      0.4321592200E+00
          0                 3           2             4    7     1       0.2384314543E-03       4    7    1         0.1330828399E-01      0.3023651190E-01
          0                 4           1             4    7     1      -0.9475575767E-05       4    7    1        -0.5436296726E-03      0.1235678705E-02

    ------------------------------------------------
       NWT REQUIRED            4 OUTER ITERATIONS 
       AND A TOTAL OF          7 INNER ITERATIONS.
    ------------------------------------------------

 NO OUTPUT CONTROL FOR STRESS PERIOD   47   TIME STEP   30



 STREAM LISTING     PERIOD     47   STEP       30

 LAYER ROW COL. STREAM  RCH.  FLOW INTO     FLOW TO   FLOW OUT OF   OVRLND.     DIRECT     STREAM       STREAM     STREAM     STREAM   STREAMBED  STREAMBED
                SEG.NO.  NO.  STRM. RCH.    AQUIFER    STRM. RCH.    RUNOFF     PRECIP       ET          HEAD       DEPTH      WIDTH   CONDCTNC.   GRADIENT

   1    1    1     1     1    1.9000E+01  2.1427E-01   1.8786E+01  0.000E+00  0.000E+00  0.000E+00  1.09413E+03  1.082E+00  1.166E+01  5.249E-02  1.361E+00
   1    2    2     1     2    1.8786E+01  3.3054E-01   1.8455E+01  0.000E+00  0.000E+00  0.000E+00  1.08914E+03  1.077E+00  1.158E+01  8.107E-02  1.359E+00
   1    3    3     1     3    1.8455E+01  2.8064E-01   1.8175E+01  0.000E+00  0.000E+00  0.000E+00  1.08349E+03  1.072E+00  1.149E+01  6.892E-02  1.357E+00
   1    3    4     1     4    1.8175E+01  2.5740E-01   1.7917E+01  0.000E+00  0.000E+00  0.000E+00  1.07848E+03  1.068E+00  1.140E+01  6.328E-02  1.356E+00
   1    4    5     2     1    1.5917E+01  3.0542E-01   1.5612E+01  0.000E+00  0.000E+00  0.000E+00  1.07285E+03  9.157E-01  1.200E+01  7.800E-02  1.305E+00
   1    5    6     2     2    1.5612E+01  2.3438E-01   1.5377E+01  0.000E+00  0.000E+00  0.000E+00  1.06742E+03  9.063E-01  1.200E+01  6.000E-02  1.302E+00
   1    6    6     2     3    1.5377E+01  2.3388E-01   1.5143E+01  0.000E+00  0.000E+00  0.000E+00  1.06269E+03  8.980E-01  1.200E+01  6.000E-02  1.299E+00
   1    7    6     2     4    1.5143E+01  2.3338E-01   1.4910E+01  0.000E+00  0.000E+00  0.000E+00  1.05797E+03  8.897E-01  1.200E+01  6.000E-02  1.297E+00
   1    8    6     2     5    1.4910E+01  2.3289E-01   1.4677E+01  0.000E+00  0.000E+00  0.000E+00  1.05324E+03  8.814E-01  1.200E+01  6.000E-02  1.294E+00
   1    3    5     3     1    2.0000E+00  2.8252E-01   1.7175E+00  0.000E+00  0.000E+00  0.000E+00  1.07555E+03  1.909E+00  9.636E+00  7.227E-02  1.955E+00
   1    3    6     3     2    1.7175E+00  2.4905E-01   1.4684E+00  0.000E+00  0.000E+00  0.000E+00  1.07264E+03  1.727E+00  8.909E+00  6.682E-02  1.864E+00
   1    3    7     3     3    1.4684E+00  1.9718E-01   1.2712E+00  0.000E+00  0.000E+00  0.000E+00  1.06987E+03  1.555E+00  8.218E+00  5.547E-02  1.777E+00
   1    4    8     3     4    1.2712E+00  2.2567E-01   1.0456E+00  0.000E+00  0.000E+00  0.000E+00  1.06682E+03  1.364E+00  7.455E+00  6.709E-02  1.682E+00
   1    5    8     3     5    1.0456E+00  1.5790E-01   8.8768E-01  0.000E+00  0.000E+00  0.000E+00  1.06362E+03  1.164E+00  6.655E+00  4.991E-02  1.582E+00
   1    6    8     3     6    8.8768E-01  5.5980E-02   8.3170E-01  0.000E+00  0.000E+00  0.000E+00  1.06158E+03  1.036E+00  6.145E+00  1.844E-02  1.518E+00
   1    5   10     4     1    1.0000E+01  9.0919E-02   9.9091E+00  0.000E+00  0.000E+00  0.000E+00  1.07836E+03  6.368E-01  1.000E+01  2.500E-02  1.212E+00
   1    5    9     4     2    9.9091E+00  1.8158E-01   9.7275E+00  0.000E+00  0.000E+00  0.000E+00  1.07154E+03  6.315E-01  1.000E+01  5.000E-02  1.211E+00
   1    6    8     4     3    9.7275E+00  1.2689E-01   9.6006E+00  0.000E+00  0.000E+00  0.000E+00  1.06381E+03  6.256E-01  1.000E+01  3.500E-02  1.209E+00
   1    6    8     5     1    1.0432E+01  2.2686E-01   1.0205E+01  0.000E+00  0.000E+00  0.000E+00  1.05868E+03  6.790E-01  1.542E+01  6.166E-02  1.226E+00
   1    7    7     5     2    1.0205E+01  2.7894E-01   9.9265E+00  0.000E+00  0.000E+00  0.000E+00  1.05417E+03  6.732E-01  1.519E+01  7.594E-02  1.224E+00
   1    8    7     5     3    9.9265E+00  1.9221E-01   9.7343E+00  0.000E+00  0.000E+00  0.000E+00  1.04992E+03  6.676E-01  1.497E+01  5.241E-02  1.223E+00
   1    8    6     5     4    9.7343E+00  1.3577E-01   9.5985E+00  0.000E+00  0.000E+00  0.000E+00  1.04691E+03  6.637E-01  1.482E+01  3.706E-02  1.221E+00
   1    9    6     6     1    2.4276E+01  2.5176E-01   2.4024E+01  0.000E+00  0.000E+00  0.000E+00  1.04392E+03  1.196E+00  1.200E+01  6.000E-02  1.399E+00
   1   10    7     6     2    2.4024E+01  2.5131E-01   2.3773E+01  0.000E+00  0.000E+00  0.000E+00  1.03937E+03  1.188E+00  1.200E+01  6.000E-02  1.396E+00
   1   11    7     6     3    2.3773E+01  2.5086E-01   2.3522E+01  0.000E+00  0.000E+00  0.000E+00  1.03482E+03  1.181E+00  1.200E+01  6.000E-02  1.394E+00
   1   12    7     6     4    2.3522E+01  2.5041E-01   2.3271E+01  0.000E+00  0.000E+00  0.000E+00  1.03026E+03  1.173E+00  1.200E+01  6.000E-02  1.391E+00
   1   13    7     6     5    2.3271E+01  1.2250E-02   2.3259E+01  0.000E+00  0.000E+00  0.000E+00  1.02708E+03  1.169E+00  1.200E+01  2.400E-02  1.701E-01
   1   14    9     7     1    1.5000E+02  1.3805E+00   1.4862E+02  0.000E+00  0.000E+00  0.000E+00  1.03987E+03  2.288E+00  5.529E+01  5.593E-01  8.228E-01
   1   13    8     7     2    1.4862E+02  1.9934E+00   1.4663E+02  0.000E+00  0.000E+00  0.000E+00  1.03478E+03  2.279E+00  5.525E+01  6.147E-01  1.081E+00
   1   13    7     7     3    1.4663E+02  1.7420E+00   1.4488E+02  0.000E+00  0.000E+00  0.000E+00  1.02969E+03  2.269E+00  5.521E+01  5.584E-01  1.040E+00
   1   13    6     8     1    1.6814E+02  1.1729E+00   1.6697E+02  0.000E+00  0.000E+00  0.000E+00  1.02481E+03  2.936E+00  4.258E+01  4.339E-01  9.012E-01
   1   13    5     8     2    1.6697E+02  4.0817E-01   1.6656E+02  0.000E+00  0.000E+00  0.000E+00  1.01856E+03  2.931E+00  4.250E+01  4.331E-01  3.142E-01
   1   13    4     8     3    1.6656E+02 -1.6523E+00   1.6821E+02  0.000E+00  0.000E+00  0.000E+00  1.01231E+03  2.935E+00  4.256E+01  4.337E+00 -1.270E-01
   1   13    3     8     4    1.6821E+02 -3.2705E+00   1.7148E+02  0.000E+00  0.000E+00  0.000E+00  1.00608E+03  2.951E+00  4.279E+01  4.361E+00 -2.500E-01
   1   13    2     8     5    1.7148E+02 -2.4812E+00   1.7397E+02  0.000E+00  0.000E+00  0.000E+00  9.99845E+02  2.970E+00  4.306E+01  4.388E+00 -1.885E-01
   1   13    1     8     6    1.7397E+02 -1.9567E+00   1.7592E+02  0.000E+00  0.000E+00  0.000E+00  9.94859E+02  2.984E+00  4.327E+01  2.646E+00 -2.465E-01





UNSATURATED ZONE PACKAGE VOLUMETRIC BUDGET FOR  TIME STEP    30 STRESS PERIOD   47
  ------------------------------------------------------------------------------



     CUMULATIVE VOLUMES      L**3       RATES FOR THIS TIME STEP      L**3/T
     ------------------                 ------------------------

           IN:                                      IN:
           ---                                      ---
        INFILTRATION =  2007714460.0778          INFILTRATION =           0.8475

          OUT:                                     OUT:
          ----                                     ----
              UZF ET =  1718085964.8869                UZF ET =           0.8475
        UZF RECHARGE =   289549635.8538          UZF RECHARGE =           0.0004

            IN - OUT =       78859.3371              IN - OUT =      -4.0391E-04

          STORAGE:                                 STORAGE:
          --------                                 --------
      STORAGE CHANGE =       78883.4230        STORAGE CHANGE =      -4.0391E-04

 PERCENT DISCREPANCY IS DIFFERENCE BETWEEN IN-OUT MINUS CHANGE IN STORAGE
 DIVIDED BY THE AVERAGE OF IN AND OUT TIMES 100

 PERCENT DISCREPANCY =           0.00     PERCENT DISCREPANCY =           0.00






1
  VOLUMETRIC BUDGET FOR AGRICULTURAL FIELDS AT  END OF TIME STEP   30, STRESS PERIOD  47
  ------------------------------------------------------------------------------

     CUMULATIVE VOLUMES      L**3       RATES FOR THIS TIME STEP      L**3/T
     ------------------                 ------------------------

           IN:                                      IN:
           ---                                      ---
               AG WELLS  =  1905110912.0000                 AG WELLS  =           0.0000
      DIVERSION SEGMENTS =           0.0000        DIVERSION SEGMENTS =           0.0000
           GW IRRIGATION =           0.0000             GW IRRIGATION =           0.0000
           SW IRRIGATION =           0.0000             SW IRRIGATION =           0.0000
        SYSTEM LOSSES GW =           0.0000          SYSTEM LOSSES GW =           0.0000
        SYSTEM LOSSES SW =           0.0000          SYSTEM LOSSES SW =           0.0000

                TOTAL IN =  1905110912.0000                  TOTAL IN =           0.0000

          OUT:                                     OUT:
          ----                                     ----
               AG WELLS  =           0.0000                 AG WELLS  =           0.0000
      DIVERSION SEGMENTS =           0.0000        DIVERSION SEGMENTS =           0.0000
           GW IRRIGATION =  1905110912.0000             GW IRRIGATION =           0.0000
           SW IRRIGATION =           0.0000             SW IRRIGATION =           0.0000
        SYSTEM LOSSES GW =           0.0000          SYSTEM LOSSES GW =           0.0000
        SYSTEM LOSSES SW =           0.0000          SYSTEM LOSSES SW =           0.0000

               TOTAL OUT =  1905110912.0000                 TOTAL OUT =           0.0000

                IN - OUT =           0.0000                  IN - OUT =           0.0000

     PERCENT DISCREPANCY =           0.00         PERCENT DISCREPANCY =           0.00



1
  VOLUMETRIC BUDGET FOR ENTIRE MODEL AT END OF TIME STEP   30, STRESS PERIOD  47
  ------------------------------------------------------------------------------

     CUMULATIVE VOLUMES      L**3       RATES FOR THIS TIME STEP      L**3/T
     ------------------                 ------------------------

           IN:                                      IN:
           ---                                      ---
             STORAGE     =  2402991360.0000               STORAGE     =          10.9960
       CONSTANT HEAD     =           0.0000         CONSTANT HEAD     =           0.0000
     HEAD DEP BOUNDS     =    34667784.0000       HEAD DEP BOUNDS     =           0.2888
      STREAM LEAKAGE     =  1485718528.0000        STREAM LEAKAGE     =          12.4379
        UZF RECHARGE     =   289549568.0000          UZF RECHARGE     =       4.0391E-04
               GW ET     =           0.0000                 GW ET     =           0.0000
     SURFACE LEAKAGE     =           0.0000       SURFACE LEAKAGE     =           0.0000
           AG WELLS      =           0.0000             AG WELLS      =           0.0000

                TOTAL IN =  4212927232.0000                  TOTAL IN =          23.7231

          OUT:                                     OUT:
          ----                                     ----
             STORAGE     =  1034978880.0000               STORAGE     =          14.0736
       CONSTANT HEAD     =           0.0000         CONSTANT HEAD     =           0.0000
     HEAD DEP BOUNDS     =    35309420.0000       HEAD DEP BOUNDS     =           0.2888
      STREAM LEAKAGE     =  1220023680.0000        STREAM LEAKAGE     =           9.3607
        UZF RECHARGE     =           0.0000          UZF RECHARGE     =           0.0000
               GW ET     =    17516202.0000                 GW ET     =           0.0000
     SURFACE LEAKAGE     =           0.0000       SURFACE LEAKAGE     =           0.0000
           AG WELLS      =  1905110912.0000             AG WELLS      =           0.0000

               TOTAL OUT =  4212939264.0000                 TOTAL OUT =          23.7230

                IN - OUT =      -12032.0000                  IN - OUT =       1.5259E-05

     PERCENT DISCREPANCY =          -0.00         PERCENT DISCREPANCY =           0.00






         TIME SUMMARY AT END OF TIME STEP   30 IN STRESS PERIOD   47
                    SECONDS     MINUTES      HOURS       DAYS        YEARS
                    -----------------------------------------------------------
   TIME STEP LENGTH  87667.      1461.1      24.352      1.0147     2.77799E-03
 STRESS PERIOD TIME 2.63000E+06  43833.      730.56      30.440     8.33397E-02
         TOTAL TIME 1.21065E+08 2.01775E+06  33629.      1401.2      3.8363    
1
1
                            STRESS PERIOD NO.   48, LENGTH =   2630000.    
                            -----------------------------------------------

                              NUMBER OF TIME STEPS =    30

                               MULTIPLIER FOR DELT =     1.000

                            INITIAL TIME STEP SIZE =   87666.66    

 REUSING NON-PARAMETER GHB CELLS FROM LAST STRESS PERIOD

      2 GHB CELLS

 REUSING STREAM SEGMENT DATA FROM LAST STRESS PERIOD



            AREAL INFILTRATION RATE
 READING ON UNIT   19 WITH FORMAT: (FREE)              

            1           2           3           4           5           6           7           8           9          10
 ........................................................................................................................
   1   1.0000E-10  2.0000E-10   0.000       0.000       0.000       0.000       0.000       0.000       0.000       0.000    
   2   2.0000E-10  1.0000E-10  2.0000E-10   0.000       0.000      8.0000E-10  8.0000E-10  5.0000E-10   0.000       0.000    
   3    0.000      5.0000E-10  1.0000E-10  1.0000E-10  8.0000E-10  8.0000E-10  5.0000E-10  5.0000E-10   0.000       0.000    
   4   8.0000E-10  5.0000E-10  1.0000E-10  1.0000E-10  1.0000E-10  1.0000E-10  1.0000E-10  1.0000E-10  2.0000E-10   0.000    
   5   8.0000E-10  5.0000E-10  1.0000E-10  1.0000E-10  1.0000E-10  1.0000E-10  1.0000E-10  1.0000E-10  1.0000E-10  1.0000E-10
   6   8.0000E-10  5.0000E-10  5.0000E-10  2.0000E-10  2.0000E-10  1.0000E-10  1.0000E-10  1.0000E-10  1.0000E-10  5.0000E-10
   7   8.0000E-10  5.0000E-10  5.0000E-10  2.0000E-10  2.0000E-10  1.0000E-10  1.0000E-10  2.0000E-10  2.0000E-10   0.000    
   8    0.000      5.0000E-10  5.0000E-10  2.0000E-10  2.0000E-10  1.0000E-10  1.0000E-10  2.0000E-10  5.0000E-10   0.000    
   9    0.000      5.0000E-10  5.0000E-10  2.0000E-10  2.0000E-10  1.0000E-10  1.0000E-10  2.0000E-10  5.0000E-10   0.000    
  10    0.000      5.0000E-10  5.0000E-10  2.0000E-10  2.0000E-10  1.0000E-10  1.0000E-10  2.0000E-10  5.0000E-10  8.0000E-10
  11    0.000      1.0000E-10  1.0000E-10  1.0000E-10  1.0000E-10  1.0000E-10  1.0000E-10  2.0000E-10  5.0000E-10   0.000    
  12   1.0000E-10  1.0000E-10  1.0000E-10  1.0000E-10  1.0000E-10  1.0000E-10  1.0000E-10  1.0000E-10  2.0000E-10   0.000    
  13   1.0000E-10  1.0000E-10  2.0000E-10  2.0000E-10  2.0000E-10  2.0000E-10  2.0000E-10  1.0000E-10  1.0000E-10   0.000    
  14    0.000      2.0000E-10  5.0000E-10  5.0000E-10  5.0000E-10  5.0000E-10  5.0000E-10  2.0000E-10  1.0000E-10   0.000    
  15    0.000       0.000      8.0000E-10  8.0000E-10  8.0000E-10  8.0000E-10   0.000       0.000       0.000       0.000    

                  ET RATE =  5.000000E-10

 USING ET EXTINCTION DEPTH FROM PREVIOUS STRESS PERIOD. CURRENT PERIOD IS:      48

 USING EXTINCTION WATER CONTENT FROM PREVIOUS STRESS PERIOD. CURRENT PERIOD IS:      48

 USING AIR ENTRY PRESSURE FROM PREVIOUS STRESS PERIOD. CURRENT PERIOD IS:      48

 USING ROOT PRESSURE HEAD FROM PREVIOUS STRESS PERIOD. CURRENT PERIOD IS:      48

 USING ROOT ACTIVITY FROM PREVIOUS STRESS PERIOD. CURRENT PERIOD IS:      48

 PROCESSING AG STRESS PERIOD DATA

 READING AG STRESS PERIOD DATA

 READING IRRIGATION WELL

 END PROCESSING AG STRESS PERIOD DATA OPTIONS
 
 SOLVING FOR HEAD 
                                                   Max.-Head-Change                         Max.-Flux-Residual
  Residual-Control   Outer-Iter.   Inner-Iter.     Column Row Layer    Maximum-Head-Change  Column Row Layer    Maximum-Flux-Residual          L2-NORM 
          0                 1           2             4    7     1       0.3547085212E-01       4    7    1         0.1872635160E+01      0.4273328166E+01
          0                 2           2             4    7     1      -0.3448514400E-02       4    7    1        -0.1871643345E+00      0.4271842538E+00
          0                 3           2             4    7     1       0.2346547334E-03       4    7    1         0.1309165555E-01      0.2988837558E-01
          0                 4           1             4    7     1      -0.9325479654E-05       4    7    1        -0.5347803287E-03      0.1221537964E-02

    ------------------------------------------------
       NWT REQUIRED            4 OUTER ITERATIONS 
       AND A TOTAL OF          7 INNER ITERATIONS.
    ------------------------------------------------

 NO OUTPUT CONTROL FOR STRESS PERIOD   48   TIME STEP    1
 
 SOLVING FOR HEAD 
                                                   Max.-Head-Change                         Max.-Flux-Residual
  Residual-Control   Outer-Iter.   Inner-Iter.     Column Row Layer    Maximum-Head-Change  Column Row Layer    Maximum-Flux-Residual          L2-NORM 
          0                 1           2             4    7     1       0.3492366664E-01       4    7    1         0.1842970910E+01      0.4225136400E+01
          0                 2           2             4    7     1      -0.3395315094E-02       4    7    1        -0.1841993921E+00      0.4223661952E+00
          0                 3           2             4    7     1       0.2310347206E-03       4    7    1         0.1288426196E-01      0.2955122530E-01
          0                 4           1             4    7     1      -0.9181611485E-05       4    7    1        -0.5263082292E-03      0.1207669141E-02

    ------------------------------------------------
       NWT REQUIRED            4 OUTER ITERATIONS 
       AND A TOTAL OF          7 INNER ITERATIONS.
    ------------------------------------------------

 NO OUTPUT CONTROL FOR STRESS PERIOD   48   TIME STEP    2
 
 SOLVING FOR HEAD 
                                                   Max.-Head-Change                         Max.-Flux-Residual
  Residual-Control   Outer-Iter.   Inner-Iter.     Column Row Layer    Maximum-Head-Change  Column Row Layer    Maximum-Flux-Residual          L2-NORM 
          0                 1           2             4    7     1       0.3439865030E-01       4    7    1         0.1814542019E+01      0.4178401691E+01
          0                 2           2             4    7     1      -0.3344271200E-02       4    7    1        -0.1813579270E+00      0.4176938491E+00
          0                 3           2             4    7     1       0.2275613785E-03       4    7    1         0.1268550558E-01      0.2922455768E-01
          0                 4           1             4    7     1      -0.9043572456E-05       4    7    1        -0.5181889960E-03      0.1201406686E-02

    ------------------------------------------------
       NWT REQUIRED            4 OUTER ITERATIONS 
       AND A TOTAL OF          7 INNER ITERATIONS.
    ------------------------------------------------

 NO OUTPUT CONTROL FOR STRESS PERIOD   48   TIME STEP    3
 
 SOLVING FOR HEAD 
                                                   Max.-Head-Change                         Max.-Flux-Residual
  Residual-Control   Outer-Iter.   Inner-Iter.     Column Row Layer    Maximum-Head-Change  Column Row Layer    Maximum-Flux-Residual          L2-NORM 
          0                 1           2             4    7     1       0.3389440872E-01       4    7    1         0.1787269827E+01      0.4133029048E+01
          0                 2           2             4    7     1      -0.3295247147E-02       4    7    1        -0.1786320767E+00      0.4131576944E+00
          0                 3           2             4    7     1       0.2242254809E-03       4    7    1         0.1249483642E-01      0.2890684161E-01
          0                 4           1             4    7     1      -0.8910996001E-05       4    7    1        -0.5104001336E-03      0.1181325819E-02

    ------------------------------------------------
       NWT REQUIRED            4 OUTER ITERATIONS 
       AND A TOTAL OF          7 INNER ITERATIONS.
    ------------------------------------------------

 NO OUTPUT CONTROL FOR STRESS PERIOD   48   TIME STEP    4
 
 SOLVING FOR HEAD 
                                                   Max.-Head-Change                         Max.-Flux-Residual
  Residual-Control   Outer-Iter.   Inner-Iter.     Column Row Layer    Maximum-Head-Change  Column Row Layer    Maximum-Flux-Residual          L2-NORM 
          0                 1           2             4    7     1       0.3340939484E-01       4    7    1         0.1761067507E+01      0.4088919575E+01
          0                 2           2             4    7     1      -0.3248092522E-02       4    7    1        -0.1760131630E+00      0.4087478566E+00
          0                 3           2             4    7     1       0.2210167933E-03       4    7    1         0.1231164748E-01      0.2859826950E-01
          0                 4           1             4    7     1      -0.8783475605E-05       4    7    1        -0.5029168342E-03      0.1168715076E-02

    ------------------------------------------------
       NWT REQUIRED            4 OUTER ITERATIONS 
       AND A TOTAL OF          7 INNER ITERATIONS.
    ------------------------------------------------

 NO OUTPUT CONTROL FOR STRESS PERIOD   48   TIME STEP    5
 
 SOLVING FOR HEAD 
                                                   Max.-Head-Change                         Max.-Flux-Residual
  Residual-Control   Outer-Iter.   Inner-Iter.     Column Row Layer    Maximum-Head-Change  Column Row Layer    Maximum-Flux-Residual          L2-NORM 
          0                 1           2             4    7     1       0.3294230747E-01       4    7    1         0.1735862112E+01      0.4045992593E+01
          0                 2           2             4    7     1      -0.3202680815E-02       4    7    1        -0.1734938942E+00      0.4044562818E+00
          0                 3           2             4    7     1       0.2179267068E-03       4    7    1         0.1213542868E-01      0.2829796714E-01
          0                 4           1             4    7     1      -0.8660668764E-05       4    7    1        -0.4957182882E-03      0.1156440167E-02

    ------------------------------------------------
       NWT REQUIRED            4 OUTER ITERATIONS 
       AND A TOTAL OF          7 INNER ITERATIONS.
    ------------------------------------------------

 NO OUTPUT CONTROL FOR STRESS PERIOD   48   TIME STEP    6
 
 SOLVING FOR HEAD 
                                                   Max.-Head-Change                         Max.-Flux-Residual
  Residual-Control   Outer-Iter.   Inner-Iter.     Column Row Layer    Maximum-Head-Change  Column Row Layer    Maximum-Flux-Residual          L2-NORM 
          0                 1           2             4    7     1       0.3249221615E-01       4    7    1         0.1711600710E+01      0.4004183730E+01
          0                 2           2             4    7     1      -0.3158921559E-02       4    7    1        -0.1710689797E+00      0.4002765029E+00
          0                 3           2             4    7     1       0.2149490655E-03       4    7    1         0.1196580994E-01      0.2800549083E-01
          0                 4           1             4    7     1      -0.8542330485E-05       4    7    1        -0.4887893695E-03      0.1144479780E-02

    ------------------------------------------------
       NWT REQUIRED            4 OUTER ITERATIONS 
       AND A TOTAL OF          7 INNER ITERATIONS.
    ------------------------------------------------

 NO OUTPUT CONTROL FOR STRESS PERIOD   48   TIME STEP    7
 
 SOLVING FOR HEAD 
                                                   Max.-Head-Change                         Max.-Flux-Residual
  Residual-Control   Outer-Iter.   Inner-Iter.     Column Row Layer    Maximum-Head-Change  Column Row Layer    Maximum-Flux-Residual          L2-NORM 
          0                 1           2             4    7     1       0.3205786271E-01       4    7    1         0.1688213258E+01      0.3963408335E+01
          0                 2           2             4    7     1      -0.3116692428E-02       4    7    1        -0.1687314187E+00      0.3962000924E+00
          0                 3           2             4    7     1       0.2120755446E-03       4    7    1         0.1180230155E-01      0.2772026304E-01
          0                 4           1             4    7     1      -0.8428130583E-05       4    7    1        -0.4821100499E-03      0.1132828383E-02

    ------------------------------------------------
       NWT REQUIRED            4 OUTER ITERATIONS 
       AND A TOTAL OF          7 INNER ITERATIONS.
    ------------------------------------------------

 NO OUTPUT CONTROL FOR STRESS PERIOD   48   TIME STEP    8
 
 SOLVING FOR HEAD 
                                                   Max.-Head-Change                         Max.-Flux-Residual
  Residual-Control   Outer-Iter.   Inner-Iter.     Column Row Layer    Maximum-Head-Change  Column Row Layer    Maximum-Flux-Residual          L2-NORM 
          0                 1           2             4    7     1       0.3163835680E-01       4    7    1         0.1665649057E+01      0.3923626042E+01
          0                 2           2             4    7     1      -0.3075906856E-02       4    7    1        -0.1664761434E+00      0.3922229643E+00
          0                 3           2             4    7     1       0.2093002541E-03       4    7    1         0.1164454901E-01      0.2744196633E-01
          0                 4           1             4    7     1      -0.8317834888E-05       4    7    1        -0.4756658714E-03      0.1121452198E-02

    ------------------------------------------------
       NWT REQUIRED            4 OUTER ITERATIONS 
       AND A TOTAL OF          7 INNER ITERATIONS.
    ------------------------------------------------

 NO OUTPUT CONTROL FOR STRESS PERIOD   48   TIME STEP    9
 
 SOLVING FOR HEAD 
                                                   Max.-Head-Change                         Max.-Flux-Residual
  Residual-Control   Outer-Iter.   Inner-Iter.     Column Row Layer    Maximum-Head-Change  Column Row Layer    Maximum-Flux-Residual          L2-NORM 
          0                 1           2             4    7     1       0.3123260775E-01       4    7    1         0.1643847408E+01      0.3884765902E+01
          0                 2           2             4    7     1      -0.3036458802E-02       4    7    1        -0.1642970869E+00      0.3883380624E+00
          0                 3           2             4    7     1       0.2066159785E-03       4    7    1         0.1149212796E-01      0.2717014375E-01
          0                 4           1             4    7     1      -0.8211156502E-05       4    7    1        -0.4694395143E-03      0.1110346071E-02

    ------------------------------------------------
       NWT REQUIRED            4 OUTER ITERATIONS 
       AND A TOTAL OF          7 INNER ITERATIONS.
    ------------------------------------------------

 NO OUTPUT CONTROL FOR STRESS PERIOD   48   TIME STEP   10
 
 SOLVING FOR HEAD 
                                                   Max.-Head-Change                         Max.-Flux-Residual
  Residual-Control   Outer-Iter.   Inner-Iter.     Column Row Layer    Maximum-Head-Change  Column Row Layer    Maximum-Flux-Residual          L2-NORM 
          0                 1           2             4    7     1       0.3083987440E-01       4    7    1         0.1622766297E+01      0.3846787834E+01
          0                 2           2             4    7     1      -0.2998276204E-02       4    7    1        -0.1621900497E+00      0.3845413639E+00
          0                 3           2             4    7     1       0.2040178129E-03       4    7    1         0.1134474462E-01      0.2690447572E-01
          0                 4           1             4    7     1      -0.8107900169E-05       4    7    1        -0.4634189222E-03      0.1099487650E-02

    ------------------------------------------------
       NWT REQUIRED            4 OUTER ITERATIONS 
       AND A TOTAL OF          7 INNER ITERATIONS.
    ------------------------------------------------

 NO OUTPUT CONTROL FOR STRESS PERIOD   48   TIME STEP   11
 
 SOLVING FOR HEAD 
                                                   Max.-Head-Change                         Max.-Flux-Residual
  Residual-Control   Outer-Iter.   Inner-Iter.     Column Row Layer    Maximum-Head-Change  Column Row Layer    Maximum-Flux-Residual          L2-NORM 
          0                 1           2             4    7     1       0.3045933627E-01       4    7    1         0.1602360028E+01      0.3809636165E+01
          0                 2           2             4    7     1      -0.2961279291E-02       4    7    1        -0.1601504643E+00      0.3808272858E+00
          0                 3           2             4    7     1       0.2015003300E-03       4    7    1         0.1120207949E-01      0.2664458362E-01
          0                 4           1             4    7     1      -0.8007850715E-05       4    7    1        -0.4575910987E-03      0.1088861931E-02

    ------------------------------------------------
       NWT REQUIRED            4 OUTER ITERATIONS 
       AND A TOTAL OF          7 INNER ITERATIONS.
    ------------------------------------------------

 NO OUTPUT CONTROL FOR STRESS PERIOD   48   TIME STEP   12
 
 SOLVING FOR HEAD 
                                                   Max.-Head-Change                         Max.-Flux-Residual
  Residual-Control   Outer-Iter.   Inner-Iter.     Column Row Layer    Maximum-Head-Change  Column Row Layer    Maximum-Flux-Residual          L2-NORM 
          0                 1           2             4    7     1       0.3009037306E-01       4    7    1         0.1582593330E+01      0.3773282124E+01
          0                 2           2             4    7     1      -0.2925407754E-02       4    7    1        -0.1581748054E+00      0.3771929943E+00
          0                 3           2             4    7     1       0.1990594258E-03       4    7    1         0.1106388600E-01      0.2639030152E-01
          0                 4           1             4    7     1      -0.7910844429E-05       4    7    1        -0.4519459324E-03      0.1078459031E-02

    ------------------------------------------------
       NWT REQUIRED            4 OUTER ITERATIONS 
       AND A TOTAL OF          7 INNER ITERATIONS.
    ------------------------------------------------

 NO OUTPUT CONTROL FOR STRESS PERIOD   48   TIME STEP   13
 
 SOLVING FOR HEAD 
                                                   Max.-Head-Change                         Max.-Flux-Residual
  Residual-Control   Outer-Iter.   Inner-Iter.     Column Row Layer    Maximum-Head-Change  Column Row Layer    Maximum-Flux-Residual          L2-NORM 
          0                 1           2             4    7     1       0.2973214416E-01       4    7    1         0.1563419503E+01      0.3737671982E+01
          0                 2           2             4    7     1      -0.2890579862E-02       4    7    1        -0.1562584050E+00      0.3736330987E+00
          0                 3           2             4    7     1       0.1966895386E-03       4    7    1         0.1092983763E-01      0.2614121782E-01
          0                 4           1             4    7     1      -0.7816660727E-05       4    7    1        -0.4464701037E-03      0.1068290713E-02

    ------------------------------------------------
       NWT REQUIRED            4 OUTER ITERATIONS 
       AND A TOTAL OF          7 INNER ITERATIONS.
    ------------------------------------------------

 NO OUTPUT CONTROL FOR STRESS PERIOD   48   TIME STEP   14
 
 SOLVING FOR HEAD 
                                                   Max.-Head-Change                         Max.-Flux-Residual
  Residual-Control   Outer-Iter.   Inner-Iter.     Column Row Layer    Maximum-Head-Change  Column Row Layer    Maximum-Flux-Residual          L2-NORM 
          0                 1           2             4    7     1       0.2938413865E-01       4    7    1         0.1544809501E+01      0.3702786356E+01
          0                 2           2             4    7     1      -0.2856745941E-02       4    7    1        -0.1543983600E+00      0.3701456378E+00
          0                 3           2             4    7     1       0.1943872882E-03       4    7    1         0.1079973127E-01      0.2589721010E-01
          0                 4           1             4    7     1      -0.7725165024E-05       4    7    1        -0.4411553098E-03      0.1058318717E-02

    ------------------------------------------------
       NWT REQUIRED            4 OUTER ITERATIONS 
       AND A TOTAL OF          7 INNER ITERATIONS.
    ------------------------------------------------

 NO OUTPUT CONTROL FOR STRESS PERIOD   48   TIME STEP   15
 
 SOLVING FOR HEAD 
                                                   Max.-Head-Change                         Max.-Flux-Residual
  Residual-Control   Outer-Iter.   Inner-Iter.     Column Row Layer    Maximum-Head-Change  Column Row Layer    Maximum-Flux-Residual          L2-NORM 
          0                 1           2             4    7     1       0.2904575238E-01       4    7    1         0.1526729564E+01      0.3668588381E+01
          0                 2           2             4    7     1      -0.2823847249E-02       4    7    1        -0.1525912960E+00      0.3667269377E+00
          0                 3           2             4    7     1       0.1921486771E-03       4    7    1         0.1067333089E-01      0.2565799999E-01
          0                 4           1             4    7     1      -0.7636198559E-05       4    7    1        -0.4359919087E-03      0.1048530936E-02

    ------------------------------------------------
       NWT REQUIRED            4 OUTER ITERATIONS 
       AND A TOTAL OF          7 INNER ITERATIONS.
    ------------------------------------------------

 NO OUTPUT CONTROL FOR STRESS PERIOD   48   TIME STEP   16
 
 SOLVING FOR HEAD 
                                                   Max.-Head-Change                         Max.-Flux-Residual
  Residual-Control   Outer-Iter.   Inner-Iter.     Column Row Layer    Maximum-Head-Change  Column Row Layer    Maximum-Flux-Residual          L2-NORM 
          0                 1           2             4    7     1       0.2871628983E-01       4    7    1         0.1509141097E+01      0.3635030538E+01
          0                 2           2             4    7     1      -0.2791816168E-02       4    7    1        -0.1508333552E+00      0.3633722448E+00
          0                 3           2             4    7     1       0.1899691041E-03       4    7    1         0.1055036664E-01      0.2542328416E-01
          0                 4           1             4    7     1      -0.7549578625E-05       4    7    1        -0.4309688736E-03      0.1038940984E-02

    ------------------------------------------------
       NWT REQUIRED            4 OUTER ITERATIONS 
       AND A TOTAL OF          7 INNER ITERATIONS.
    ------------------------------------------------

 NO OUTPUT CONTROL FOR STRESS PERIOD   48   TIME STEP   17
 
 SOLVING FOR HEAD 
                                                   Max.-Head-Change                         Max.-Flux-Residual
  Residual-Control   Outer-Iter.   Inner-Iter.     Column Row Layer    Maximum-Head-Change  Column Row Layer    Maximum-Flux-Residual          L2-NORM 
          0                 1           2             4    7     1       0.2839550933E-01       4    7    1         0.1492029853E+01      0.3602116798E+01
          0                 2           2             4    7     1      -0.2760629198E-02       4    7    1        -0.1491231135E+00      0.3600819546E+00
          0                 3           2             4    7     1       0.1878469706E-03       4    7    1         0.1043073892E-01      0.2519306412E-01
          0                 4           1             4    7     1      -0.7465241440E-05       4    7    1        -0.4260821461E-03      0.1029533472E-02

    ------------------------------------------------
       NWT REQUIRED            4 OUTER ITERATIONS 
       AND A TOTAL OF          7 INNER ITERATIONS.
    ------------------------------------------------

 NO OUTPUT CONTROL FOR STRESS PERIOD   48   TIME STEP   18
 
 SOLVING FOR HEAD 
                                                   Max.-Head-Change                         Max.-Flux-Residual
  Residual-Control   Outer-Iter.   Inner-Iter.     Column Row Layer    Maximum-Head-Change  Column Row Layer    Maximum-Flux-Residual          L2-NORM 
          0                 1           2             4    7     1       0.2808278961E-01       4    7    1         0.1475361486E+01      0.3569803614E+01
          0                 2           2             4    7     1      -0.2730225935E-02       4    7    1        -0.1474571381E+00      0.3568517327E+00
          0                 3           2             4    7     1       0.1857781654E-03       4    7    1         0.1031420759E-01      0.2496706635E-01
          0                 4           1             4    7     1      -0.7383023640E-05       4    7    1        -0.4213218926E-03      0.1020305501E-02

    ------------------------------------------------
       NWT REQUIRED            4 OUTER ITERATIONS 
       AND A TOTAL OF          7 INNER ITERATIONS.
    ------------------------------------------------

 NO OUTPUT CONTROL FOR STRESS PERIOD   48   TIME STEP   19
 
 SOLVING FOR HEAD 
                                                   Max.-Head-Change                         Max.-Flux-Residual
  Residual-Control   Outer-Iter.   Inner-Iter.     Column Row Layer    Maximum-Head-Change  Column Row Layer    Maximum-Flux-Residual          L2-NORM 
          0                 1           2             4    7     1       0.2777768476E-01       4    7    1         0.1459111056E+01      0.3538071122E+01
          0                 2           2             4    7     1      -0.2700563026E-02       4    7    1        -0.1458329360E+00      0.3536795637E+00
          0                 3           2             4    7     1       0.1837597393E-03       4    7    1         0.1020059826E-01      0.2474512168E-01
          0                 4           1             4    7     1      -0.7302808254E-05       4    7    1        -0.4166810359E-03      0.1011233681E-02

    ------------------------------------------------
       NWT REQUIRED            4 OUTER ITERATIONS 
       AND A TOTAL OF          7 INNER ITERATIONS.
    ------------------------------------------------

 NO OUTPUT CONTROL FOR STRESS PERIOD   48   TIME STEP   20
 
 SOLVING FOR HEAD 
                                                   Max.-Head-Change                         Max.-Flux-Residual
  Residual-Control   Outer-Iter.   Inner-Iter.     Column Row Layer    Maximum-Head-Change  Column Row Layer    Maximum-Flux-Residual          L2-NORM 
          0                 1           2             4    7     1       0.2747991636E-01       4    7    1         0.1443262717E+01      0.3506895778E+01
          0                 2           2             4    7     1      -0.2671613401E-02       4    7    1        -0.1442489235E+00      0.3505630982E+00
          0                 3           2             4    7     1       0.1817898499E-03       4    7    1         0.1008980018E-01      0.2452706904E-01
          0                 4           1             4    7     1      -0.7224521716E-05       4    7    1        -0.4121550028E-03      0.1002323098E-02

    ------------------------------------------------
       NWT REQUIRED            4 OUTER ITERATIONS 
       AND A TOTAL OF          7 INNER ITERATIONS.
    ------------------------------------------------

 NO OUTPUT CONTROL FOR STRESS PERIOD   48   TIME STEP   21
 
 SOLVING FOR HEAD 
                                                   Max.-Head-Change                         Max.-Flux-Residual
  Residual-Control   Outer-Iter.   Inner-Iter.     Column Row Layer    Maximum-Head-Change  Column Row Layer    Maximum-Flux-Residual          L2-NORM 
          0                 1           2             4    7     1       0.2718909630E-01       4    7    1         0.1427794760E+01      0.3476269104E+01
          0                 2           2             4    7     1      -0.2643339324E-02       4    7    1        -0.1427029306E+00      0.3475015100E+00
          0                 3           2             4    7     1       0.1798659288E-03       4    7    1         0.9981661501E-02      0.2431286726E-01
          0                 4           1             4    7     1      -0.7148062023E-05       4    7    1        -0.4077376118E-03      0.9935678757E-03

    ------------------------------------------------
       NWT REQUIRED            4 OUTER ITERATIONS 
       AND A TOTAL OF          7 INNER ITERATIONS.
    ------------------------------------------------

 NO OUTPUT CONTROL FOR STRESS PERIOD   48   TIME STEP   22
 
 SOLVING FOR HEAD 
                                                   Max.-Head-Change                         Max.-Flux-Residual
  Residual-Control   Outer-Iter.   Inner-Iter.     Column Row Layer    Maximum-Head-Change  Column Row Layer    Maximum-Flux-Residual          L2-NORM 
          0                 1           2             4    7     1       0.2690472741E-01       4    7    1         0.1412679788E+01      0.3446151710E+01
          0                 2           2             4    7     1      -0.2615692459E-02       4    7    1        -0.1411922189E+00      0.3444908413E+00
          0                 3           2             4    7     1       0.1779846877E-03       4    7    1         0.9875990721E-02      0.2410222733E-01
          0                 4           1             4    7     1      -0.7073298620E-05       4    7    1        -0.4034210317E-03      0.9849639930E-03

    ------------------------------------------------
       NWT REQUIRED            4 OUTER ITERATIONS 
       AND A TOTAL OF          7 INNER ITERATIONS.
    ------------------------------------------------

 NO OUTPUT CONTROL FOR STRESS PERIOD   48   TIME STEP   23
 
 SOLVING FOR HEAD 
                                                   Max.-Head-Change                         Max.-Flux-Residual
  Residual-Control   Outer-Iter.   Inner-Iter.     Column Row Layer    Maximum-Head-Change  Column Row Layer    Maximum-Flux-Residual          L2-NORM 
          0                 1           2             4    7     1       0.2662648143E-01       4    7    1         0.1397899297E+01      0.3416538475E+01
          0                 2           2             4    7     1      -0.2588640891E-02       4    7    1        -0.1397149389E+00      0.3415305862E+00
          0                 3           2             4    7     1       0.1761439543E-03       4    7    1         0.9772658456E-02      0.2389512083E-01
          0                 4           1             4    7     1      -0.7000145276E-05       4    7    1        -0.3991999899E-03      0.9764978565E-03

    ------------------------------------------------
       NWT REQUIRED            4 OUTER ITERATIONS 
       AND A TOTAL OF          7 INNER ITERATIONS.
    ------------------------------------------------

 NO OUTPUT CONTROL FOR STRESS PERIOD   48   TIME STEP   24
 
 SOLVING FOR HEAD 
                                                   Max.-Head-Change                         Max.-Flux-Residual
  Residual-Control   Outer-Iter.   Inner-Iter.     Column Row Layer    Maximum-Head-Change  Column Row Layer    Maximum-Flux-Residual          L2-NORM 
          0                 1           2             4    7     1       0.2635432065E-01       4    7    1         0.1383450817E+01      0.3387420341E+01
          0                 2           2             4    7     1      -0.2562180951E-02       4    7    1        -0.1382708437E+00      0.3386198365E+00
          0                 3           2             4    7     1       0.1743434791E-03       4    7    1         0.9671647437E-02      0.2369147628E-01
          0                 4           1             4    7     1      -0.6928591285E-05       4    7    1        -0.3950737546E-03      0.9681712454E-03

    ------------------------------------------------
       NWT REQUIRED            4 OUTER ITERATIONS 
       AND A TOTAL OF          7 INNER ITERATIONS.
    ------------------------------------------------

 NO OUTPUT CONTROL FOR STRESS PERIOD   48   TIME STEP   25
 
 SOLVING FOR HEAD 
                                                   Max.-Head-Change                         Max.-Flux-Residual
  Residual-Control   Outer-Iter.   Inner-Iter.     Column Row Layer    Maximum-Head-Change  Column Row Layer    Maximum-Flux-Residual          L2-NORM 
          0                 1           2             4    7     1       0.2608768041E-01       4    7    1         0.1369303294E+01      0.3358769485E+01
          0                 2           2             4    7     1      -0.2536257741E-02       4    7    1        -0.1368568294E+00      0.3357557908E+00
          0                 3           2             4    7     1       0.1725795266E-03       4    7    1         0.9572740534E-02      0.2349108514E-01
          0                 4           1             4    7     1      -0.6858489514E-05       4    7    1        -0.3910334783E-03      0.9599805484E-03

    ------------------------------------------------
       NWT REQUIRED            4 OUTER ITERATIONS 
       AND A TOTAL OF          7 INNER ITERATIONS.
    ------------------------------------------------

 NO OUTPUT CONTROL FOR STRESS PERIOD   48   TIME STEP   26
 
 SOLVING FOR HEAD 
                                                   Max.-Head-Change                         Max.-Flux-Residual
  Residual-Control   Outer-Iter.   Inner-Iter.     Column Row Layer    Maximum-Head-Change  Column Row Layer    Maximum-Flux-Residual          L2-NORM 
          0                 1           2             4    7     1       0.2582656206E-01       4    7    1         0.1355456551E+01      0.3330575963E+01
          0                 2           2             4    7     1      -0.2510871390E-02       4    7    1        -0.1354728783E+00      0.3329374878E+00
          0                 3           2             4    7     1       0.1708521054E-03       4    7    1         0.9475936507E-02      0.2329391164E-01
          0                 4           1             4    7     1      -0.6789839156E-05       4    7    1        -0.3870791211E-03      0.9519244482E-03

    ------------------------------------------------
       NWT REQUIRED            4 OUTER ITERATIONS 
       AND A TOTAL OF          7 INNER ITERATIONS.
    ------------------------------------------------

 NO OUTPUT CONTROL FOR STRESS PERIOD   48   TIME STEP   27
 
 SOLVING FOR HEAD 
                                                   Max.-Head-Change                         Max.-Flux-Residual
  Residual-Control   Outer-Iter.   Inner-Iter.     Column Row Layer    Maximum-Head-Change  Column Row Layer    Maximum-Flux-Residual          L2-NORM 
          0                 1           2             4    7     1       0.2557057585E-01       4    7    1         0.1341888833E+01      0.3302829781E+01
          0                 2           2             4    7     1      -0.2485983560E-02       4    7    1        -0.1341168158E+00      0.3301329691E+00
          0                 3           2             4    7     1       0.1691586071E-03       4    7    1         0.9381083283E-02      0.2309943795E-01
          0                 4           1             4    7     1      -0.6722537288E-05       4    7    1        -0.3832044520E-03      0.9878681225E-03

    ------------------------------------------------
       NWT REQUIRED            4 OUTER ITERATIONS 
       AND A TOTAL OF          7 INNER ITERATIONS.
    ------------------------------------------------

 NO OUTPUT CONTROL FOR STRESS PERIOD   48   TIME STEP   28
 
 SOLVING FOR HEAD 
                                                   Max.-Head-Change                         Max.-Flux-Residual
  Residual-Control   Outer-Iter.   Inner-Iter.     Column Row Layer    Maximum-Head-Change  Column Row Layer    Maximum-Flux-Residual          L2-NORM 
          0                 1           2             4    7     1       0.2531949066E-01       4    7    1         0.1328587231E+01      0.3275535969E+01
          0                 2           2             4    7     1      -0.2461573095E-02       4    7    1        -0.1327873517E+00      0.3274145641E+00
          0                 3           2             4    7     1       0.1674975911E-03       4    7    1         0.9288090543E-02      0.2290749847E-01
          0                 4           1             4    7     1      -0.6656526230E-05       4    7    1        -0.3794057816E-03      0.9361282271E-03

    ------------------------------------------------
       NWT REQUIRED            4 OUTER ITERATIONS 
       AND A TOTAL OF          7 INNER ITERATIONS.
    ------------------------------------------------

 NO OUTPUT CONTROL FOR STRESS PERIOD   48   TIME STEP   29
 
 SOLVING FOR HEAD 
                                                   Max.-Head-Change                         Max.-Flux-Residual
  Residual-Control   Outer-Iter.   Inner-Iter.     Column Row Layer    Maximum-Head-Change  Column Row Layer    Maximum-Flux-Residual          L2-NORM 
          0                 1           2             4    7     1       0.2507308820E-01       4    7    1         0.1315539691E+01      0.3248722135E+01
          0                 2           2             4    7     1      -0.2437617509E-02       4    7    1        -0.1314832812E+00      0.3247552351E+00
          0                 3           2             4    7     1       0.1658675280E-03       4    7    1         0.9196874079E-02      0.2272145487E-01
          0                 4           1             4    7     1      -0.6591745081E-05       4    7    1        -0.3756796573E-03      0.9285421941E-03

    ------------------------------------------------
       NWT REQUIRED            4 OUTER ITERATIONS 
       AND A TOTAL OF          7 INNER ITERATIONS.
    ------------------------------------------------

 NO OUTPUT CONTROL FOR STRESS PERIOD   48   TIME STEP   30



 STREAM LISTING     PERIOD     48   STEP       30

 LAYER ROW COL. STREAM  RCH.  FLOW INTO     FLOW TO   FLOW OUT OF   OVRLND.     DIRECT     STREAM       STREAM     STREAM     STREAM   STREAMBED  STREAMBED
                SEG.NO.  NO.  STRM. RCH.    AQUIFER    STRM. RCH.    RUNOFF     PRECIP       ET          HEAD       DEPTH      WIDTH   CONDCTNC.   GRADIENT

   1    1    1     1     1    1.9000E+01  2.1427E-01   1.8786E+01  0.000E+00  0.000E+00  0.000E+00  1.09413E+03  1.082E+00  1.166E+01  5.249E-02  1.361E+00
   1    2    2     1     2    1.8786E+01  3.3054E-01   1.8455E+01  0.000E+00  0.000E+00  0.000E+00  1.08914E+03  1.077E+00  1.158E+01  8.107E-02  1.359E+00
   1    3    3     1     3    1.8455E+01  2.8064E-01   1.8175E+01  0.000E+00  0.000E+00  0.000E+00  1.08349E+03  1.072E+00  1.149E+01  6.892E-02  1.357E+00
   1    3    4     1     4    1.8175E+01  2.5740E-01   1.7917E+01  0.000E+00  0.000E+00  0.000E+00  1.07848E+03  1.068E+00  1.140E+01  6.328E-02  1.356E+00
   1    4    5     2     1    1.5917E+01  3.0542E-01   1.5612E+01  0.000E+00  0.000E+00  0.000E+00  1.07285E+03  9.157E-01  1.200E+01  7.800E-02  1.305E+00
   1    5    6     2     2    1.5612E+01  2.3438E-01   1.5377E+01  0.000E+00  0.000E+00  0.000E+00  1.06742E+03  9.063E-01  1.200E+01  6.000E-02  1.302E+00
   1    6    6     2     3    1.5377E+01  2.3388E-01   1.5143E+01  0.000E+00  0.000E+00  0.000E+00  1.06269E+03  8.980E-01  1.200E+01  6.000E-02  1.299E+00
   1    7    6     2     4    1.5143E+01  2.3338E-01   1.4910E+01  0.000E+00  0.000E+00  0.000E+00  1.05797E+03  8.897E-01  1.200E+01  6.000E-02  1.297E+00
   1    8    6     2     5    1.4910E+01  2.3289E-01   1.4677E+01  0.000E+00  0.000E+00  0.000E+00  1.05324E+03  8.814E-01  1.200E+01  6.000E-02  1.294E+00
   1    3    5     3     1    2.0000E+00  2.8252E-01   1.7175E+00  0.000E+00  0.000E+00  0.000E+00  1.07555E+03  1.909E+00  9.636E+00  7.227E-02  1.955E+00
   1    3    6     3     2    1.7175E+00  2.4905E-01   1.4684E+00  0.000E+00  0.000E+00  0.000E+00  1.07264E+03  1.727E+00  8.909E+00  6.682E-02  1.864E+00
   1    3    7     3     3    1.4684E+00  1.9718E-01   1.2712E+00  0.000E+00  0.000E+00  0.000E+00  1.06987E+03  1.555E+00  8.218E+00  5.547E-02  1.777E+00
   1    4    8     3     4    1.2712E+00  2.2567E-01   1.0456E+00  0.000E+00  0.000E+00  0.000E+00  1.06682E+03  1.364E+00  7.455E+00  6.709E-02  1.682E+00
   1    5    8     3     5    1.0456E+00  1.5790E-01   8.8768E-01  0.000E+00  0.000E+00  0.000E+00  1.06362E+03  1.164E+00  6.655E+00  4.991E-02  1.582E+00
   1    6    8     3     6    8.8768E-01  5.5980E-02   8.3170E-01  0.000E+00  0.000E+00  0.000E+00  1.06158E+03  1.036E+00  6.145E+00  1.844E-02  1.518E+00
   1    5   10     4     1    1.0000E+01  9.0919E-02   9.9091E+00  0.000E+00  0.000E+00  0.000E+00  1.07836E+03  6.368E-01  1.000E+01  2.500E-02  1.212E+00
   1    5    9     4     2    9.9091E+00  1.8158E-01   9.7275E+00  0.000E+00  0.000E+00  0.000E+00  1.07154E+03  6.315E-01  1.000E+01  5.000E-02  1.211E+00
   1    6    8     4     3    9.7275E+00  1.2689E-01   9.6006E+00  0.000E+00  0.000E+00  0.000E+00  1.06381E+03  6.256E-01  1.000E+01  3.500E-02  1.209E+00
   1    6    8     5     1    1.0432E+01  2.2686E-01   1.0205E+01  0.000E+00  0.000E+00  0.000E+00  1.05868E+03  6.790E-01  1.542E+01  6.166E-02  1.226E+00
   1    7    7     5     2    1.0205E+01  2.7894E-01   9.9265E+00  0.000E+00  0.000E+00  0.000E+00  1.05417E+03  6.732E-01  1.519E+01  7.594E-02  1.224E+00
   1    8    7     5     3    9.9265E+00  1.9221E-01   9.7343E+00  0.000E+00  0.000E+00  0.000E+00  1.04992E+03  6.676E-01  1.497E+01  5.241E-02  1.223E+00
   1    8    6     5     4    9.7343E+00  1.3577E-01   9.5985E+00  0.000E+00  0.000E+00  0.000E+00  1.04691E+03  6.637E-01  1.482E+01  3.706E-02  1.221E+00
   1    9    6     6     1    2.4276E+01  2.5176E-01   2.4024E+01  0.000E+00  0.000E+00  0.000E+00  1.04392E+03  1.196E+00  1.200E+01  6.000E-02  1.399E+00
   1   10    7     6     2    2.4024E+01  2.5131E-01   2.3773E+01  0.000E+00  0.000E+00  0.000E+00  1.03937E+03  1.188E+00  1.200E+01  6.000E-02  1.396E+00
   1   11    7     6     3    2.3773E+01  2.5086E-01   2.3522E+01  0.000E+00  0.000E+00  0.000E+00  1.03482E+03  1.181E+00  1.200E+01  6.000E-02  1.394E+00
   1   12    7     6     4    2.3522E+01  2.5041E-01   2.3271E+01  0.000E+00  0.000E+00  0.000E+00  1.03026E+03  1.173E+00  1.200E+01  6.000E-02  1.391E+00
   1   13    7     6     5    2.3271E+01  1.2639E-02   2.3259E+01  0.000E+00  0.000E+00  0.000E+00  1.02708E+03  1.169E+00  1.200E+01  2.400E-02  1.755E-01
   1   14    9     7     1    1.5000E+02  1.3824E+00   1.4862E+02  0.000E+00  0.000E+00  0.000E+00  1.03987E+03  2.288E+00  5.529E+01  5.593E-01  8.239E-01
   1   13    8     7     2    1.4862E+02  1.9978E+00   1.4662E+02  0.000E+00  0.000E+00  0.000E+00  1.03478E+03  2.279E+00  5.525E+01  6.147E-01  1.083E+00
   1   13    7     7     3    1.4662E+02  1.7510E+00   1.4487E+02  0.000E+00  0.000E+00  0.000E+00  1.02969E+03  2.269E+00  5.521E+01  5.584E-01  1.045E+00
   1   13    6     8     1    1.6813E+02  1.1836E+00   1.6694E+02  0.000E+00  0.000E+00  0.000E+00  1.02481E+03  2.936E+00  4.257E+01  4.338E-01  9.094E-01
   1   13    5     8     2    1.6694E+02  4.1996E-01   1.6652E+02  0.000E+00  0.000E+00  0.000E+00  1.01856E+03  2.931E+00  4.250E+01  4.331E-01  3.233E-01
   1   13    4     8     3    1.6652E+02 -1.6080E+00   1.6813E+02  0.000E+00  0.000E+00  0.000E+00  1.01231E+03  2.935E+00  4.255E+01  4.336E+00 -1.236E-01
   1   13    3     8     4    1.6813E+02 -3.2516E+00   1.7138E+02  0.000E+00  0.000E+00  0.000E+00  1.00608E+03  2.951E+00  4.278E+01  4.360E+00 -2.486E-01
   1   13    2     8     5    1.7138E+02 -2.4780E+00   1.7386E+02  0.000E+00  0.000E+00  0.000E+00  9.99844E+02  2.969E+00  4.305E+01  4.387E+00 -1.883E-01
   1   13    1     8     6    1.7386E+02 -1.9561E+00   1.7582E+02  0.000E+00  0.000E+00  0.000E+00  9.94858E+02  2.983E+00  4.326E+01  2.645E+00 -2.465E-01





UNSATURATED ZONE PACKAGE VOLUMETRIC BUDGET FOR  TIME STEP    30 STRESS PERIOD   48
  ------------------------------------------------------------------------------



     CUMULATIVE VOLUMES      L**3       RATES FOR THIS TIME STEP      L**3/T
     ------------------                 ------------------------

           IN:                                      IN:
           ---                                      ---
        INFILTRATION =  2009943384.9505          INFILTRATION =           0.8475

          OUT:                                     OUT:
          ----                                     ----
              UZF ET =  1720058464.7999                UZF ET =           0.7500
        UZF RECHARGE =   289550576.5089          UZF RECHARGE =           0.0003

            IN - OUT =      334343.6417              IN - OUT =       9.7183E-02

          STORAGE:                                 STORAGE:
          --------                                 --------
      STORAGE CHANGE =      334367.7472        STORAGE CHANGE =       9.7183E-02

 PERCENT DISCREPANCY IS DIFFERENCE BETWEEN IN-OUT MINUS CHANGE IN STORAGE
 DIVIDED BY THE AVERAGE OF IN AND OUT TIMES 100

 PERCENT DISCREPANCY =           0.00     PERCENT DISCREPANCY =           0.00






1
  VOLUMETRIC BUDGET FOR AGRICULTURAL FIELDS AT  END OF TIME STEP   30, STRESS PERIOD  48
  ------------------------------------------------------------------------------

     CUMULATIVE VOLUMES      L**3       RATES FOR THIS TIME STEP      L**3/T
     ------------------                 ------------------------

           IN:                                      IN:
           ---                                      ---
               AG WELLS  =  1905110912.0000                 AG WELLS  =           0.0000
      DIVERSION SEGMENTS =           0.0000        DIVERSION SEGMENTS =           0.0000
           GW IRRIGATION =           0.0000             GW IRRIGATION =           0.0000
           SW IRRIGATION =           0.0000             SW IRRIGATION =           0.0000
        SYSTEM LOSSES GW =           0.0000          SYSTEM LOSSES GW =           0.0000
        SYSTEM LOSSES SW =           0.0000          SYSTEM LOSSES SW =           0.0000

                TOTAL IN =  1905110912.0000                  TOTAL IN =           0.0000

          OUT:                                     OUT:
          ----                                     ----
               AG WELLS  =           0.0000                 AG WELLS  =           0.0000
      DIVERSION SEGMENTS =           0.0000        DIVERSION SEGMENTS =           0.0000
           GW IRRIGATION =  1905110912.0000             GW IRRIGATION =           0.0000
           SW IRRIGATION =           0.0000             SW IRRIGATION =           0.0000
        SYSTEM LOSSES GW =           0.0000          SYSTEM LOSSES GW =           0.0000
        SYSTEM LOSSES SW =           0.0000          SYSTEM LOSSES SW =           0.0000

               TOTAL OUT =  1905110912.0000                 TOTAL OUT =           0.0000

                IN - OUT =           0.0000                  IN - OUT =           0.0000

     PERCENT DISCREPANCY =           0.00         PERCENT DISCREPANCY =           0.00



1
  VOLUMETRIC BUDGET FOR ENTIRE MODEL AT END OF TIME STEP   30, STRESS PERIOD  48
  ------------------------------------------------------------------------------

     CUMULATIVE VOLUMES      L**3       RATES FOR THIS TIME STEP      L**3/T
     ------------------                 ------------------------

           IN:                                      IN:
           ---                                      ---
             STORAGE     =  2427679488.0000               STORAGE     =           8.1398
       CONSTANT HEAD     =           0.0000         CONSTANT HEAD     =           0.0000
     HEAD DEP BOUNDS     =    35427504.0000       HEAD DEP BOUNDS     =           0.2889
      STREAM LEAKAGE     =  1518480512.0000        STREAM LEAKAGE     =          12.4760
        UZF RECHARGE     =   289550528.0000          UZF RECHARGE     =       3.1655E-04
               GW ET     =           0.0000                 GW ET     =           0.0000
     SURFACE LEAKAGE     =           0.0000       SURFACE LEAKAGE     =           0.0000
           AG WELLS      =           0.0000             AG WELLS      =           0.0000

                TOTAL IN =  4271138048.0000                  TOTAL IN =          20.9050

          OUT:                                     OUT:
          ----                                     ----
             STORAGE     =  1067902912.0000               STORAGE     =          11.3226
       CONSTANT HEAD     =           0.0000         CONSTANT HEAD     =           0.0000
     HEAD DEP BOUNDS     =    36068780.0000       HEAD DEP BOUNDS     =           0.2887
      STREAM LEAKAGE     =  1244551680.0000        STREAM LEAKAGE     =           9.2936
        UZF RECHARGE     =           0.0000          UZF RECHARGE     =           0.0000
               GW ET     =    17516202.0000                 GW ET     =           0.0000
     SURFACE LEAKAGE     =           0.0000       SURFACE LEAKAGE     =           0.0000
           AG WELLS      =  1905110912.0000             AG WELLS      =           0.0000

               TOTAL OUT =  4271150592.0000                 TOTAL OUT =          20.9050

                IN - OUT =      -12544.0000                  IN - OUT =       1.5259E-05

     PERCENT DISCREPANCY =          -0.00         PERCENT DISCREPANCY =           0.00






         TIME SUMMARY AT END OF TIME STEP   30 IN STRESS PERIOD   48
                    SECONDS     MINUTES      HOURS       DAYS        YEARS
                    -----------------------------------------------------------
   TIME STEP LENGTH  87667.      1461.1      24.352      1.0147     2.77799E-03
 STRESS PERIOD TIME 2.63000E+06  43833.      730.56      30.440     8.33397E-02
         TOTAL TIME 1.23695E+08 2.06158E+06  34360.      1431.7      3.9197    
1
1
                            STRESS PERIOD NO.   49, LENGTH =   2630000.    
                            -----------------------------------------------

                              NUMBER OF TIME STEPS =    30

                               MULTIPLIER FOR DELT =     1.000

                            INITIAL TIME STEP SIZE =   87666.66    

 REUSING NON-PARAMETER GHB CELLS FROM LAST STRESS PERIOD

      2 GHB CELLS

 REUSING STREAM SEGMENT DATA FROM LAST STRESS PERIOD



            AREAL INFILTRATION RATE
 READING ON UNIT   19 WITH FORMAT: (FREE)              

            1           2           3           4           5           6           7           8           9          10
 ........................................................................................................................
   1   1.0000E-10  2.0000E-10   0.000       0.000       0.000       0.000       0.000       0.000       0.000       0.000    
   2   2.0000E-10  1.0000E-10  2.0000E-10   0.000       0.000      8.0000E-10  8.0000E-10  5.0000E-10   0.000       0.000    
   3    0.000      5.0000E-10  1.0000E-10  1.0000E-10  8.0000E-10  8.0000E-10  5.0000E-10  5.0000E-10   0.000       0.000    
   4   8.0000E-10  5.0000E-10  1.0000E-10  1.0000E-10  1.0000E-10  1.0000E-10  1.0000E-10  1.0000E-10  2.0000E-10   0.000    
   5   8.0000E-10  5.0000E-10  1.0000E-10  1.0000E-10  1.0000E-10  1.0000E-10  1.0000E-10  1.0000E-10  1.0000E-10  1.0000E-10
   6   8.0000E-10  5.0000E-10  5.0000E-10  2.0000E-10  2.0000E-10  1.0000E-10  1.0000E-10  1.0000E-10  1.0000E-10  5.0000E-10
   7   8.0000E-10  5.0000E-10  5.0000E-10  2.0000E-10  2.0000E-10  1.0000E-10  1.0000E-10  2.0000E-10  2.0000E-10   0.000    
   8    0.000      5.0000E-10  5.0000E-10  2.0000E-10  2.0000E-10  1.0000E-10  1.0000E-10  2.0000E-10  5.0000E-10   0.000    
   9    0.000      5.0000E-10  5.0000E-10  2.0000E-10  2.0000E-10  1.0000E-10  1.0000E-10  2.0000E-10  5.0000E-10   0.000    
  10    0.000      5.0000E-10  5.0000E-10  2.0000E-10  2.0000E-10  1.0000E-10  1.0000E-10  2.0000E-10  5.0000E-10  8.0000E-10
  11    0.000      1.0000E-10  1.0000E-10  1.0000E-10  1.0000E-10  1.0000E-10  1.0000E-10  2.0000E-10  5.0000E-10   0.000    
  12   1.0000E-10  1.0000E-10  1.0000E-10  1.0000E-10  1.0000E-10  1.0000E-10  1.0000E-10  1.0000E-10  2.0000E-10   0.000    
  13   1.0000E-10  1.0000E-10  2.0000E-10  2.0000E-10  2.0000E-10  2.0000E-10  2.0000E-10  1.0000E-10  1.0000E-10   0.000    
  14    0.000      2.0000E-10  5.0000E-10  5.0000E-10  5.0000E-10  5.0000E-10  5.0000E-10  2.0000E-10  1.0000E-10   0.000    
  15    0.000       0.000      8.0000E-10  8.0000E-10  8.0000E-10  8.0000E-10   0.000       0.000       0.000       0.000    

                  ET RATE =  5.000000E-10

 USING ET EXTINCTION DEPTH FROM PREVIOUS STRESS PERIOD. CURRENT PERIOD IS:      49

 USING EXTINCTION WATER CONTENT FROM PREVIOUS STRESS PERIOD. CURRENT PERIOD IS:      49

 USING AIR ENTRY PRESSURE FROM PREVIOUS STRESS PERIOD. CURRENT PERIOD IS:      49

 USING ROOT PRESSURE HEAD FROM PREVIOUS STRESS PERIOD. CURRENT PERIOD IS:      49

 USING ROOT ACTIVITY FROM PREVIOUS STRESS PERIOD. CURRENT PERIOD IS:      49

 PROCESSING AG STRESS PERIOD DATA

 READING AG STRESS PERIOD DATA

 READING IRRIGATION WELL

 END PROCESSING AG STRESS PERIOD DATA OPTIONS
 
 SOLVING FOR HEAD 
                                                   Max.-Head-Change                         Max.-Flux-Residual
  Residual-Control   Outer-Iter.   Inner-Iter.     Column Row Layer    Maximum-Head-Change  Column Row Layer    Maximum-Flux-Residual          L2-NORM 
          0                 1           2             4    7     1       0.2483116763E-01       4    7    1         0.1302734962E+01      0.3222316036E+01
          0                 2           2             4    7     1      -0.2414097641E-02       4    7    1        -0.1302034798E+00      0.3221156390E+00
          0                 3           2             4    7     1       0.1642671143E-03       4    7    1         0.9107355195E-02      0.2253677053E-01
          0                 4           1             4    7     1      -0.6528142838E-05       4    7    1        -0.3720229138E-03      0.9209744143E-03

    ------------------------------------------------
       NWT REQUIRED            4 OUTER ITERATIONS 
       AND A TOTAL OF          7 INNER ITERATIONS.
    ------------------------------------------------

 NO OUTPUT CONTROL FOR STRESS PERIOD   49   TIME STEP    1
 
 SOLVING FOR HEAD 
                                                   Max.-Head-Change                         Max.-Flux-Residual
  Residual-Control   Outer-Iter.   Inner-Iter.     Column Row Layer    Maximum-Head-Change  Column Row Layer    Maximum-Flux-Residual          L2-NORM 
          0                 1           2             4    7     1       0.2459367386E-01       4    7    1         0.1290169891E+01      0.3196314627E+01
          0                 2           2             4    7     1      -0.2391008161E-02       4    7    1        -0.1289476321E+00      0.3195165213E+00
          0                 3           2             4    7     1       0.1626959865E-03       4    7    1         0.9019511832E-02      0.2235496751E-01
          0                 4           1             4    7     1      -0.6465704420E-05       4    7    1        -0.3684345979E-03      0.9135911336E-03

    ------------------------------------------------
       NWT REQUIRED            4 OUTER ITERATIONS 
       AND A TOTAL OF          7 INNER ITERATIONS.
    ------------------------------------------------

 NO OUTPUT CONTROL FOR STRESS PERIOD   49   TIME STEP    2
 
 SOLVING FOR HEAD 
                                                   Max.-Head-Change                         Max.-Flux-Residual
  Residual-Control   Outer-Iter.   Inner-Iter.     Column Row Layer    Maximum-Head-Change  Column Row Layer    Maximum-Flux-Residual          L2-NORM 
          0                 1           2             4    7     1       0.2436028687E-01       4    7    1         0.1277827062E+01      0.3170687848E+01
          0                 2           2             4    7     1      -0.2368317958E-02       4    7    1        -0.1277139975E+00      0.3169548283E+00
          0                 3           2             4    7     1       0.1611520277E-03       4    7    1         0.8933222250E-02      0.2217572517E-01
          0                 4           1             4    7     1      -0.6404344863E-05       4    7    1        -0.3649097307E-03      0.9062338012E-03

    ------------------------------------------------
       NWT REQUIRED            4 OUTER ITERATIONS 
       AND A TOTAL OF          7 INNER ITERATIONS.
    ------------------------------------------------

 NO OUTPUT CONTROL FOR STRESS PERIOD   49   TIME STEP    3
 
 SOLVING FOR HEAD 
                                                   Max.-Head-Change                         Max.-Flux-Residual
  Residual-Control   Outer-Iter.   Inner-Iter.     Column Row Layer    Maximum-Head-Change  Column Row Layer    Maximum-Flux-Residual          L2-NORM 
          0                 1           2             4    7     1       0.2413098181E-01       4    7    1         0.1265704441E+01      0.3145442560E+01
          0                 2           2             4    7     1      -0.2346024613E-02       4    7    1        -0.1265023727E+00      0.3144312941E+00
          0                 3           2             4    7     1       0.1596350740E-03       4    7    1         0.8848472216E-02      0.2199916812E-01
          0                 4           1             4    7     1      -0.6344059446E-05       4    7    1        -0.3614477898E-03      0.8990028619E-03

    ------------------------------------------------
       NWT REQUIRED            4 OUTER ITERATIONS 
       AND A TOTAL OF          7 INNER ITERATIONS.
    ------------------------------------------------

 NO OUTPUT CONTROL FOR STRESS PERIOD   49   TIME STEP    4
 
 SOLVING FOR HEAD 
                                                   Max.-Head-Change                         Max.-Flux-Residual
  Residual-Control   Outer-Iter.   Inner-Iter.     Column Row Layer    Maximum-Head-Change  Column Row Layer    Maximum-Flux-Residual          L2-NORM 
          0                 1           2             4    7     1       0.2390559590E-01       4    7    1         0.1253793460E+01      0.3120565903E+01
          0                 2           2             4    7     1      -0.2324112301E-02       4    7    1        -0.1253119013E+00      0.3119446251E+00
          0                 3           2             4    7     1       0.1581440479E-03       4    7    1         0.8765201834E-02      0.2182520333E-01
          0                 4           1             4    7     1      -0.6284804306E-05       4    7    1        -0.3580462694E-03      0.8919053275E-03

    ------------------------------------------------
       NWT REQUIRED            4 OUTER ITERATIONS 
       AND A TOTAL OF          7 INNER ITERATIONS.
    ------------------------------------------------

 NO OUTPUT CONTROL FOR STRESS PERIOD   49   TIME STEP    5
 
 SOLVING FOR HEAD 
                                                   Max.-Head-Change                         Max.-Flux-Residual
  Residual-Control   Outer-Iter.   Inner-Iter.     Column Row Layer    Maximum-Head-Change  Column Row Layer    Maximum-Flux-Residual          L2-NORM 
          0                 1           2             4    7     1       0.2368384513E-01       4    7    1         0.1242078401E+01      0.3096043632E+01
          0                 2           2             4    7     1      -0.2302553410E-02       4    7    1        -0.1241410122E+00      0.3094933736E+00
          0                 3           2             4    7     1       0.1566770704E-03       4    7    1         0.8683301182E-02      0.2165371864E-01
          0                 4           1             4    7     1      -0.6226504611E-05       4    7    1        -0.3547007195E-03      0.8849029705E-03

    ------------------------------------------------
       NWT REQUIRED            4 OUTER ITERATIONS 
       AND A TOTAL OF          7 INNER ITERATIONS.
    ------------------------------------------------

 NO OUTPUT CONTROL FOR STRESS PERIOD   49   TIME STEP    6
 
 SOLVING FOR HEAD 
                                                   Max.-Head-Change                         Max.-Flux-Residual
  Residual-Control   Outer-Iter.   Inner-Iter.     Column Row Layer    Maximum-Head-Change  Column Row Layer    Maximum-Flux-Residual          L2-NORM 
          0                 1           2             4    7     1       0.2346573147E-01       4    7    1         0.1230559096E+01      0.3071881443E+01
          0                 2           2             4    7     1      -0.2281348128E-02       4    7    1        -0.1229896887E+00      0.3070781286E+00
          0                 3           2             4    7     1       0.1552341547E-03       4    7    1         0.8602769119E-02      0.2148473674E-01
          0                 4           1             4    7     1      -0.6169161395E-05       4    7    1        -0.3514110620E-03      0.8779930691E-03

    ------------------------------------------------
       NWT REQUIRED            4 OUTER ITERATIONS 
       AND A TOTAL OF          7 INNER ITERATIONS.
    ------------------------------------------------

 NO OUTPUT CONTROL FOR STRESS PERIOD   49   TIME STEP    7
 
 SOLVING FOR HEAD 
                                                   Max.-Head-Change                         Max.-Flux-Residual
  Residual-Control   Outer-Iter.   Inner-Iter.     Column Row Layer    Maximum-Head-Change  Column Row Layer    Maximum-Flux-Residual          L2-NORM 
          0                 1           2             4    7     1       0.2325098842E-01       4    7    1         0.1219221088E+01      0.3048048731E+01
          0                 2           2             4    7     1      -0.2260470548E-02       4    7    1        -0.1218564857E+00      0.3046958064E+00
          0                 3           2             4    7     1       0.1538135380E-03       4    7    1         0.8523504556E-02      0.2131806215E-01
          0                 4           1             4    7     1      -0.6112704431E-05       4    7    1        -0.3481731926E-03      0.8711820476E-03

    ------------------------------------------------
       NWT REQUIRED            4 OUTER ITERATIONS 
       AND A TOTAL OF          7 INNER ITERATIONS.
    ------------------------------------------------

 NO OUTPUT CONTROL FOR STRESS PERIOD   49   TIME STEP    8
 
 SOLVING FOR HEAD 
                                                   Max.-Head-Change                         Max.-Flux-Residual
  Residual-Control   Outer-Iter.   Inner-Iter.     Column Row Layer    Maximum-Head-Change  Column Row Layer    Maximum-Flux-Residual          L2-NORM 
          0                 1           2             4    7     1       0.2303963047E-01       4    7    1         0.1208065120E+01      0.3024553738E+01
          0                 2           2             4    7     1      -0.2239922078E-02       4    7    1        -0.1207414775E+00      0.3023472725E+00
          0                 3           2             4    7     1       0.1524153158E-03       4    7    1         0.8445512690E-02      0.2115376975E-01
          0                 4           1             4    7     1      -0.6057137174E-05       4    7    1        -0.3449873091E-03      0.8644715085E-03

    ------------------------------------------------
       NWT REQUIRED            4 OUTER ITERATIONS 
       AND A TOTAL OF          7 INNER ITERATIONS.
    ------------------------------------------------

 NO OUTPUT CONTROL FOR STRESS PERIOD   49   TIME STEP    9
 
 SOLVING FOR HEAD 
                                                   Max.-Head-Change                         Max.-Flux-Residual
  Residual-Control   Outer-Iter.   Inner-Iter.     Column Row Layer    Maximum-Head-Change  Column Row Layer    Maximum-Flux-Residual          L2-NORM 
          0                 1           2             4    7     1       0.2283167702E-01       4    7    1         0.1197091944E+01      0.3001389914E+01
          0                 2           2             4    7     1      -0.2219704078E-02       4    7    1        -0.1196447391E+00      0.3000309046E+00
          0                 3           2             4    7     1       0.1510395803E-03       4    7    1         0.8368798754E-02      0.2099170435E-01
          0                 4           1             4    7     1      -0.6002463883E-05       4    7    1        -0.3418536267E-03      0.8578441131E-03

    ------------------------------------------------
       NWT REQUIRED            4 OUTER ITERATIONS 
       AND A TOTAL OF          7 INNER ITERATIONS.
    ------------------------------------------------

 NO OUTPUT CONTROL FOR STRESS PERIOD   49   TIME STEP   10
 
 SOLVING FOR HEAD 
                                                   Max.-Head-Change                         Max.-Flux-Residual
  Residual-Control   Outer-Iter.   Inner-Iter.     Column Row Layer    Maximum-Head-Change  Column Row Layer    Maximum-Flux-Residual          L2-NORM 
          0                 1           2             4    7     1       0.2262675042E-01       4    7    1         0.1186280751E+01      0.2978549794E+01
          0                 2           2             4    7     1      -0.2199781432E-02       4    7    1        -0.1185641909E+00      0.2977488088E+00
          0                 3           2             4    7     1       0.1496839420E-03       4    7    1         0.8293217288E-02      0.2083205212E-01
          0                 4           1             4    7     1      -0.5948588771E-05       4    7    1        -0.3387661957E-03      0.8513312531E-03

    ------------------------------------------------
       NWT REQUIRED            4 OUTER ITERATIONS 
       AND A TOTAL OF          7 INNER ITERATIONS.
    ------------------------------------------------

 NO OUTPUT CONTROL FOR STRESS PERIOD   49   TIME STEP   11
 
 SOLVING FOR HEAD 
                                                   Max.-Head-Change                         Max.-Flux-Residual
  Residual-Control   Outer-Iter.   Inner-Iter.     Column Row Layer    Maximum-Head-Change  Column Row Layer    Maximum-Flux-Residual          L2-NORM 
          0                 1           2             4    7     1       0.2242488538E-01       4    7    1         0.1175633718E+01      0.2956012520E+01
          0                 2           2             4    7     1      -0.2180155897E-02       4    7    1        -0.1175000503E+00      0.2954959921E+00
          0                 3           2             4    7     1       0.1483485212E-03       4    7    1         0.8218783501E-02      0.2067444138E-01
          0                 4           1             4    7     1      -0.5895517825E-05       4    7    1        -0.3357256571E-03      0.8448870575E-03

    ------------------------------------------------
       NWT REQUIRED            4 OUTER ITERATIONS 
       AND A TOTAL OF          7 INNER ITERATIONS.
    ------------------------------------------------

 NO OUTPUT CONTROL FOR STRESS PERIOD   49   TIME STEP   12
 
 SOLVING FOR HEAD 
                                                   Max.-Head-Change                         Max.-Flux-Residual
  Residual-Control   Outer-Iter.   Inner-Iter.     Column Row Layer    Maximum-Head-Change  Column Row Layer    Maximum-Flux-Residual          L2-NORM 
          0                 1           2             4    7     1       0.2222598751E-01       4    7    1         0.1165145450E+01      0.2933788211E+01
          0                 2           2             4    7     1      -0.2160818829E-02       4    7    1        -0.1164517781E+00      0.2932744766E+00
          0                 3           2             4    7     1       0.1470327299E-03       4    7    1         0.8145459687E-02      0.2051903233E-01
          0                 4           1             4    7     1      -0.5843227214E-05       4    7    1        -0.3327304792E-03      0.8385369403E-03

    ------------------------------------------------
       NWT REQUIRED            4 OUTER ITERATIONS 
       AND A TOTAL OF          7 INNER ITERATIONS.
    ------------------------------------------------

 NO OUTPUT CONTROL FOR STRESS PERIOD   49   TIME STEP   13
 
 SOLVING FOR HEAD 
                                                   Max.-Head-Change                         Max.-Flux-Residual
  Residual-Control   Outer-Iter.   Inner-Iter.     Column Row Layer    Maximum-Head-Change  Column Row Layer    Maximum-Flux-Residual          L2-NORM 
          0                 1           2             4    7     1       0.2202996934E-01       4    7    1         0.1154811024E+01      0.2911865627E+01
          0                 2           2             4    7     1      -0.2141815903E-02       4    7    1        -0.1154188822E+00      0.2911536112E+00
          0                 3           2             4    7     1       0.1457396729E-03       4    7    1         0.8073211277E-02      0.2037064433E-01
          0                 4           1             4    7     1      -0.5791839089E-05       4    7    1        -0.3297791825E-03      0.8324703262E-03

    ------------------------------------------------
       NWT REQUIRED            4 OUTER ITERATIONS 
       AND A TOTAL OF          7 INNER ITERATIONS.
    ------------------------------------------------

 NO OUTPUT CONTROL FOR STRESS PERIOD   49   TIME STEP   14
 
 SOLVING FOR HEAD 
                                                   Max.-Head-Change                         Max.-Flux-Residual
  Residual-Control   Outer-Iter.   Inner-Iter.     Column Row Layer    Maximum-Head-Change  Column Row Layer    Maximum-Flux-Residual          L2-NORM 
          0                 1           2             4    7     1       0.2183655580E-01       4    7    1         0.1144623017E+01      0.2890175771E+01
          0                 2           2             4    7     1      -0.2122957898E-02       4    7    1        -0.1144006216E+00      0.2889150523E+00
          0                 3           2             4    7     1       0.1444564822E-03       4    7    1         0.8001986864E-02      0.2021404789E-01
          0                 4           1             4    7     1      -0.5740843894E-05       4    7    1        -0.3268697619E-03      0.8260734977E-03

    ------------------------------------------------
       NWT REQUIRED            4 OUTER ITERATIONS 
       AND A TOTAL OF          7 INNER ITERATIONS.
    ------------------------------------------------

 NO OUTPUT CONTROL FOR STRESS PERIOD   49   TIME STEP   15
 
 SOLVING FOR HEAD 
                                                   Max.-Head-Change                         Max.-Flux-Residual
  Residual-Control   Outer-Iter.   Inner-Iter.     Column Row Layer    Maximum-Head-Change  Column Row Layer    Maximum-Flux-Residual          L2-NORM 
          0                 1           2             4    7     1       0.2164584052E-01       4    7    1         0.1134575829E+01      0.2868747513E+01
          0                 2           2             4    7     1      -0.2104416367E-02       4    7    1        -0.1133964352E+00      0.2867731105E+00
          0                 3           2             4    7     1       0.1431948238E-03       4    7    1         0.7931746782E-02      0.2006419927E-01
          0                 4           1             4    7     1      -0.5690703982E-05       4    7    1        -0.3240005410E-03      0.8199555783E-03

    ------------------------------------------------
       NWT REQUIRED            4 OUTER ITERATIONS 
       AND A TOTAL OF          7 INNER ITERATIONS.
    ------------------------------------------------

 NO OUTPUT CONTROL FOR STRESS PERIOD   49   TIME STEP   16
 
 SOLVING FOR HEAD 
                                                   Max.-Head-Change                         Max.-Flux-Residual
  Residual-Control   Outer-Iter.   Inner-Iter.     Column Row Layer    Maximum-Head-Change  Column Row Layer    Maximum-Flux-Residual          L2-NORM 
          0                 1           2             4    7     1       0.2145783446E-01       4    7    1         0.1124672937E+01      0.2847612386E+01
          0                 2           2             4    7     1      -0.2086138232E-02       4    7    1        -0.1124066711E+00      0.2846604957E+00
          0                 3           2             4    7     1       0.1419510880E-03       4    7    1         0.7862515483E-02      0.1991640167E-01
          0                 4           1             4    7     1      -0.5641276480E-05       4    7    1        -0.3211725318E-03      0.8139084631E-03

    ------------------------------------------------
       NWT REQUIRED            4 OUTER ITERATIONS 
       AND A TOTAL OF          7 INNER ITERATIONS.
    ------------------------------------------------

 NO OUTPUT CONTROL FOR STRESS PERIOD   49   TIME STEP   17
 
 SOLVING FOR HEAD 
                                                   Max.-Head-Change                         Max.-Flux-Residual
  Residual-Control   Outer-Iter.   Inner-Iter.     Column Row Layer    Maximum-Head-Change  Column Row Layer    Maximum-Flux-Residual          L2-NORM 
          0                 1           2             4    7     1       0.2127220326E-01       4    7    1         0.1114895947E+01      0.2826760953E+01
          0                 2           2             4    7     1      -0.2068090986E-02       4    7    1        -0.1114294905E+00      0.2825762273E+00
          0                 3           2             4    7     1       0.1407230631E-03       4    7    1         0.7794164398E-02      0.1977059180E-01
          0                 4           1             4    7     1      -0.5592473660E-05       4    7    1        -0.3183804679E-03      0.8079714885E-03

    ------------------------------------------------
       NWT REQUIRED            4 OUTER ITERATIONS 
       AND A TOTAL OF          7 INNER ITERATIONS.
    ------------------------------------------------

 NO OUTPUT CONTROL FOR STRESS PERIOD   49   TIME STEP   18
 
 SOLVING FOR HEAD 
                                                   Max.-Head-Change                         Max.-Flux-Residual
  Residual-Control   Outer-Iter.   Inner-Iter.     Column Row Layer    Maximum-Head-Change  Column Row Layer    Maximum-Flux-Residual          L2-NORM 
          0                 1           2             4    7     1       0.2108915730E-01       4    7    1         0.1105256655E+01      0.2806186645E+01
          0                 2           2             4    7     1      -0.2050295082E-02       4    7    1        -0.1104660727E+00      0.2805196563E+00
          0                 3           2             4    7     1       0.1395121409E-03       4    7    1         0.7726775975E-02      0.1962671956E-01
          0                 4           1             4    7     1      -0.5544350208E-05       4    7    1        -0.3156277287E-03      0.8020815236E-03

    ------------------------------------------------
       NWT REQUIRED            4 OUTER ITERATIONS 
       AND A TOTAL OF          7 INNER ITERATIONS.
    ------------------------------------------------

 NO OUTPUT CONTROL FOR STRESS PERIOD   49   TIME STEP   19
 
 SOLVING FOR HEAD 
                                                   Max.-Head-Change                         Max.-Flux-Residual
  Residual-Control   Outer-Iter.   Inner-Iter.     Column Row Layer    Maximum-Head-Change  Column Row Layer    Maximum-Flux-Residual          L2-NORM 
          0                 1           2             4    7     1       0.2090849481E-01       4    7    1         0.1095744119E+01      0.2785877366E+01
          0                 2           2             4    7     1      -0.2032730903E-02       4    7    1        -0.1095153240E+00      0.2784895967E+00
          0                 3           2             4    7     1       0.1383169866E-03       4    7    1         0.7660273730E-02      0.1948469870E-01
          0                 4           1             4    7     1      -0.5496853395E-05       4    7    1        -0.3129111903E-03      0.7962791540E-03

    ------------------------------------------------
       NWT REQUIRED            4 OUTER ITERATIONS 
       AND A TOTAL OF          7 INNER ITERATIONS.
    ------------------------------------------------

 NO OUTPUT CONTROL FOR STRESS PERIOD   49   TIME STEP   20
 
 SOLVING FOR HEAD 
                                                   Max.-Head-Change                         Max.-Flux-Residual
  Residual-Control   Outer-Iter.   Inner-Iter.     Column Row Layer    Maximum-Head-Change  Column Row Layer    Maximum-Flux-Residual          L2-NORM 
          0                 1           2             4    7     1       0.2073029578E-01       4    7    1         0.1086362446E+01      0.2765845865E+01
          0                 2           2             4    7     1      -0.2015406212E-02       4    7    1        -0.1085776547E+00      0.2764736218E+00
          0                 3           2             4    7     1       0.1371381283E-03       4    7    1         0.7594686346E-02      0.1934365352E-01
          0                 4           1             4    7     1      -0.5450004405E-05       4    7    1        -0.3102320375E-03      0.7905707268E-03

    ------------------------------------------------
       NWT REQUIRED            4 OUTER ITERATIONS 
       AND A TOTAL OF          7 INNER ITERATIONS.
    ------------------------------------------------

 NO OUTPUT CONTROL FOR STRESS PERIOD   49   TIME STEP   21
 
 SOLVING FOR HEAD 
                                                   Max.-Head-Change                         Max.-Flux-Residual
  Residual-Control   Outer-Iter.   Inner-Iter.     Column Row Layer    Maximum-Head-Change  Column Row Layer    Maximum-Flux-Residual          L2-NORM 
          0                 1           2             4    7     1       0.2055423248E-01       4    7    1         0.1077093930E+01      0.2746079858E+01
          0                 2           2             4    7     1      -0.1998289191E-02       4    7    1        -0.1076512953E+00      0.2745115459E+00
          0                 3           2             4    7     1       0.1359734007E-03       4    7    1         0.7529890083E-02      0.1920638903E-01
          0                 4           1             4    7     1      -0.5403716318E-05       4    7    1        -0.3075851660E-03      0.7848999746E-03

    ------------------------------------------------
       NWT REQUIRED            4 OUTER ITERATIONS 
       AND A TOTAL OF          7 INNER ITERATIONS.
    ------------------------------------------------

 NO OUTPUT CONTROL FOR STRESS PERIOD   49   TIME STEP   22
 
 SOLVING FOR HEAD 
                                                   Max.-Head-Change                         Max.-Flux-Residual
  Residual-Control   Outer-Iter.   Inner-Iter.     Column Row Layer    Maximum-Head-Change  Column Row Layer    Maximum-Flux-Residual          L2-NORM 
          0                 1           2             4    7     1       0.2038066088E-01       4    7    1         0.1067958000E+01      0.2726573608E+01
          0                 2           2             4    7     1      -0.1981414404E-02       4    7    1        -0.1067381876E+00      0.2725617641E+00
          0                 3           2             4    7     1       0.1348251561E-03       4    7    1         0.7466020733E-02      0.1906999926E-01
          0                 4           1             4    7     1      -0.5358083996E-05       4    7    1        -0.3049761892E-03      0.7793326503E-03

    ------------------------------------------------
       NWT REQUIRED            4 OUTER ITERATIONS 
       AND A TOTAL OF          7 INNER ITERATIONS.
    ------------------------------------------------

 NO OUTPUT CONTROL FOR STRESS PERIOD   49   TIME STEP   23
 
 SOLVING FOR HEAD 
                                                   Max.-Head-Change                         Max.-Flux-Residual
  Residual-Control   Outer-Iter.   Inner-Iter.     Column Row Layer    Maximum-Head-Change  Column Row Layer    Maximum-Flux-Residual          L2-NORM 
          0                 1           2             4    7     1       0.2020912336E-01       4    7    1         0.1058929406E+01      0.2707328926E+01
          0                 2           2             4    7     1      -0.1964737371E-02       4    7    1        -0.1058358079E+00      0.2706381197E+00
          0                 3           2             4    7     1       0.1336903678E-03       4    7    1         0.7402901781E-02      0.1893542338E-01
          0                 4           1             4    7     1      -0.5312986213E-05       4    7    1        -0.3023978513E-03      0.7738215217E-03

    ------------------------------------------------
       NWT REQUIRED            4 OUTER ITERATIONS 
       AND A TOTAL OF          7 INNER ITERATIONS.
    ------------------------------------------------

 NO OUTPUT CONTROL FOR STRESS PERIOD   49   TIME STEP   24
 
 SOLVING FOR HEAD 
                                                   Max.-Head-Change                         Max.-Flux-Residual
  Residual-Control   Outer-Iter.   Inner-Iter.     Column Row Layer    Maximum-Head-Change  Column Row Layer    Maximum-Flux-Residual          L2-NORM 
          0                 1           2             4    7     1       0.2003984092E-01       4    7    1         0.1050020845E+01      0.2688323401E+01
          0                 2           2             4    7     1      -0.1950267566E-02       4    7    1        -0.1050788204E+00      0.2687735108E+00
          0                 3           2             4    7     1       0.1327058238E-03       4    7    1         0.7349953650E-02      0.1880497351E-01
          0                 4           1             4    7     1      -0.5273863667E-05       4    7    1        -0.3002350895E-03      0.7685211088E-03

    ------------------------------------------------
       NWT REQUIRED            4 OUTER ITERATIONS 
       AND A TOTAL OF          7 INNER ITERATIONS.
    ------------------------------------------------

 NO OUTPUT CONTROL FOR STRESS PERIOD   49   TIME STEP   25
 
 SOLVING FOR HEAD 
                                                   Max.-Head-Change                         Max.-Flux-Residual
  Residual-Control   Outer-Iter.   Inner-Iter.     Column Row Layer    Maximum-Head-Change  Column Row Layer    Maximum-Flux-Residual          L2-NORM 
          0                 1           2             4    7     1       0.1986712838E-01       4    7    1         0.1041123244E+01      0.2669537849E+01
          0                 2           2             4    7     1      -0.1931489308E-02       4    7    1        -0.1040561783E+00      0.2668606383E+00
          0                 3           2             4    7     1       0.1314280530E-03       4    7    1         0.7278422351E-02      0.1867112942E-01
          0                 4           1             4    7     1      -0.5223083185E-05       4    7    1        -0.2973130886E-03      0.7630343378E-03

    ------------------------------------------------
       NWT REQUIRED            4 OUTER ITERATIONS 
       AND A TOTAL OF          7 INNER ITERATIONS.
    ------------------------------------------------

 NO OUTPUT CONTROL FOR STRESS PERIOD   49   TIME STEP   26
 
 SOLVING FOR HEAD 
                                                   Max.-Head-Change                         Max.-Flux-Residual
  Residual-Control   Outer-Iter.   Inner-Iter.     Column Row Layer    Maximum-Head-Change  Column Row Layer    Maximum-Flux-Residual          L2-NORM 
          0                 1           2             4    7     1       0.1969876124E-01       4    7    1         0.1032252381E+01      0.2650961669E+01
          0                 2           2             4    7     1      -0.1915120479E-02       4    7    1        -0.1031695615E+00      0.2650038550E+00
          0                 3           2             4    7     1       0.1303142361E-03       4    7    1         0.7216405962E-02      0.1854126765E-01
          0                 4           1             4    7     1      -0.5178818580E-05       4    7    1        -0.2947797902E-03      0.7584563658E-03

    ------------------------------------------------
       NWT REQUIRED            4 OUTER ITERATIONS 
       AND A TOTAL OF          7 INNER ITERATIONS.
    ------------------------------------------------

 NO OUTPUT CONTROL FOR STRESS PERIOD   49   TIME STEP   27
 
 SOLVING FOR HEAD 
                                                   Max.-Head-Change                         Max.-Flux-Residual
  Residual-Control   Outer-Iter.   Inner-Iter.     Column Row Layer    Maximum-Head-Change  Column Row Layer    Maximum-Flux-Residual          L2-NORM 
          0                 1           2             4    7     1       0.1953264295E-01       4    7    1         0.1023500910E+01      0.2632631396E+01
          0                 2           2             4    7     1      -0.1898970286E-02       4    7    1        -0.1022948779E+00      0.2631716216E+00
          0                 3           2             4    7     1       0.1292152957E-03       4    7    1         0.7155224217E-02      0.1841308034E-01
          0                 4           1             4    7     1      -0.5135145845E-05       4    7    1        -0.2922805932E-03      0.7524944068E-03

    ------------------------------------------------
       NWT REQUIRED            4 OUTER ITERATIONS 
       AND A TOTAL OF          7 INNER ITERATIONS.
    ------------------------------------------------

 NO OUTPUT CONTROL FOR STRESS PERIOD   49   TIME STEP   28
 
 SOLVING FOR HEAD 
                                                   Max.-Head-Change                         Max.-Flux-Residual
  Residual-Control   Outer-Iter.   Inner-Iter.     Column Row Layer    Maximum-Head-Change  Column Row Layer    Maximum-Flux-Residual          L2-NORM 
          0                 1           2             4    7     1       0.1936884663E-01       4    7    1         0.1014873325E+01      0.2614528659E+01
          0                 2           2             4    7     1      -0.1883045841E-02       4    7    1        -0.1014325765E+00      0.2613621437E+00
          0                 3           2             4    7     1       0.1281317169E-03       4    7    1         0.7094908598E-02      0.1828650408E-01
          0                 4           1             4    7     1      -0.5092082942E-05       4    7    1        -0.2898167822E-03      0.7473209002E-03

    ------------------------------------------------
       NWT REQUIRED            4 OUTER ITERATIONS 
       AND A TOTAL OF          7 INNER ITERATIONS.
    ------------------------------------------------

 NO OUTPUT CONTROL FOR STRESS PERIOD   49   TIME STEP   29
 
 SOLVING FOR HEAD 
                                                   Max.-Head-Change                         Max.-Flux-Residual
  Residual-Control   Outer-Iter.   Inner-Iter.     Column Row Layer    Maximum-Head-Change  Column Row Layer    Maximum-Flux-Residual          L2-NORM 
          0                 1           2             4    7     1       0.1920717853E-01       4    7    1         0.1006358842E+01      0.2596653808E+01
          0                 2           2             4    7     1      -0.1867328306E-02       4    7    1        -0.1005815795E+00      0.2595754432E+00
          0                 3           2             4    7     1       0.1270622167E-03       4    7    1         0.7035383695E-02      0.1816150259E-01
          0                 4           1             4    7     1      -0.5049579559E-05       4    7    1        -0.2873852382E-03      0.7422084279E-03

    ------------------------------------------------
       NWT REQUIRED            4 OUTER ITERATIONS 
       AND A TOTAL OF          7 INNER ITERATIONS.
    ------------------------------------------------

 NO OUTPUT CONTROL FOR STRESS PERIOD   49   TIME STEP   30



 STREAM LISTING     PERIOD     49   STEP       30

 LAYER ROW COL. STREAM  RCH.  FLOW INTO     FLOW TO   FLOW OUT OF   OVRLND.     DIRECT     STREAM       STREAM     STREAM     STREAM   STREAMBED  STREAMBED
                SEG.NO.  NO.  STRM. RCH.    AQUIFER    STRM. RCH.    RUNOFF     PRECIP       ET          HEAD       DEPTH      WIDTH   CONDCTNC.   GRADIENT

   1    1    1     1     1    1.9000E+01  2.1427E-01   1.8786E+01  0.000E+00  0.000E+00  0.000E+00  1.09413E+03  1.082E+00  1.166E+01  5.249E-02  1.361E+00
   1    2    2     1     2    1.8786E+01  3.3054E-01   1.8455E+01  0.000E+00  0.000E+00  0.000E+00  1.08914E+03  1.077E+00  1.158E+01  8.107E-02  1.359E+00
   1    3    3     1     3    1.8455E+01  2.8064E-01   1.8175E+01  0.000E+00  0.000E+00  0.000E+00  1.08349E+03  1.072E+00  1.149E+01  6.892E-02  1.357E+00
   1    3    4     1     4    1.8175E+01  2.5740E-01   1.7917E+01  0.000E+00  0.000E+00  0.000E+00  1.07848E+03  1.068E+00  1.140E+01  6.328E-02  1.356E+00
   1    4    5     2     1    1.5917E+01  3.0542E-01   1.5612E+01  0.000E+00  0.000E+00  0.000E+00  1.07285E+03  9.157E-01  1.200E+01  7.800E-02  1.305E+00
   1    5    6     2     2    1.5612E+01  2.3438E-01   1.5377E+01  0.000E+00  0.000E+00  0.000E+00  1.06742E+03  9.063E-01  1.200E+01  6.000E-02  1.302E+00
   1    6    6     2     3    1.5377E+01  2.3388E-01   1.5143E+01  0.000E+00  0.000E+00  0.000E+00  1.06269E+03  8.980E-01  1.200E+01  6.000E-02  1.299E+00
   1    7    6     2     4    1.5143E+01  2.3338E-01   1.4910E+01  0.000E+00  0.000E+00  0.000E+00  1.05797E+03  8.897E-01  1.200E+01  6.000E-02  1.297E+00
   1    8    6     2     5    1.4910E+01  2.3289E-01   1.4677E+01  0.000E+00  0.000E+00  0.000E+00  1.05324E+03  8.814E-01  1.200E+01  6.000E-02  1.294E+00
   1    3    5     3     1    2.0000E+00  2.8252E-01   1.7175E+00  0.000E+00  0.000E+00  0.000E+00  1.07555E+03  1.909E+00  9.636E+00  7.227E-02  1.955E+00
   1    3    6     3     2    1.7175E+00  2.4905E-01   1.4684E+00  0.000E+00  0.000E+00  0.000E+00  1.07264E+03  1.727E+00  8.909E+00  6.682E-02  1.864E+00
   1    3    7     3     3    1.4684E+00  1.9718E-01   1.2712E+00  0.000E+00  0.000E+00  0.000E+00  1.06987E+03  1.555E+00  8.218E+00  5.547E-02  1.777E+00
   1    4    8     3     4    1.2712E+00  2.2567E-01   1.0456E+00  0.000E+00  0.000E+00  0.000E+00  1.06682E+03  1.364E+00  7.455E+00  6.709E-02  1.682E+00
   1    5    8     3     5    1.0456E+00  1.5790E-01   8.8768E-01  0.000E+00  0.000E+00  0.000E+00  1.06362E+03  1.164E+00  6.655E+00  4.991E-02  1.582E+00
   1    6    8     3     6    8.8768E-01  5.5980E-02   8.3170E-01  0.000E+00  0.000E+00  0.000E+00  1.06158E+03  1.036E+00  6.145E+00  1.844E-02  1.518E+00
   1    5   10     4     1    1.0000E+01  9.0919E-02   9.9091E+00  0.000E+00  0.000E+00  0.000E+00  1.07836E+03  6.368E-01  1.000E+01  2.500E-02  1.212E+00
   1    5    9     4     2    9.9091E+00  1.8158E-01   9.7275E+00  0.000E+00  0.000E+00  0.000E+00  1.07154E+03  6.315E-01  1.000E+01  5.000E-02  1.211E+00
   1    6    8     4     3    9.7275E+00  1.2689E-01   9.6006E+00  0.000E+00  0.000E+00  0.000E+00  1.06381E+03  6.256E-01  1.000E+01  3.500E-02  1.209E+00
   1    6    8     5     1    1.0432E+01  2.2686E-01   1.0205E+01  0.000E+00  0.000E+00  0.000E+00  1.05868E+03  6.790E-01  1.542E+01  6.166E-02  1.226E+00
   1    7    7     5     2    1.0205E+01  2.7894E-01   9.9265E+00  0.000E+00  0.000E+00  0.000E+00  1.05417E+03  6.732E-01  1.519E+01  7.594E-02  1.224E+00
   1    8    7     5     3    9.9265E+00  1.9221E-01   9.7343E+00  0.000E+00  0.000E+00  0.000E+00  1.04992E+03  6.676E-01  1.497E+01  5.241E-02  1.223E+00
   1    8    6     5     4    9.7343E+00  1.3577E-01   9.5985E+00  0.000E+00  0.000E+00  0.000E+00  1.04691E+03  6.637E-01  1.482E+01  3.706E-02  1.221E+00
   1    9    6     6     1    2.4276E+01  2.5176E-01   2.4024E+01  0.000E+00  0.000E+00  0.000E+00  1.04392E+03  1.196E+00  1.200E+01  6.000E-02  1.399E+00
   1   10    7     6     2    2.4024E+01  2.5131E-01   2.3773E+01  0.000E+00  0.000E+00  0.000E+00  1.03937E+03  1.188E+00  1.200E+01  6.000E-02  1.396E+00
   1   11    7     6     3    2.3773E+01  2.5086E-01   2.3522E+01  0.000E+00  0.000E+00  0.000E+00  1.03482E+03  1.181E+00  1.200E+01  6.000E-02  1.394E+00
   1   12    7     6     4    2.3522E+01  2.5041E-01   2.3271E+01  0.000E+00  0.000E+00  0.000E+00  1.03026E+03  1.173E+00  1.200E+01  6.000E-02  1.391E+00
   1   13    7     6     5    2.3271E+01  1.3116E-02   2.3258E+01  0.000E+00  0.000E+00  0.000E+00  1.02708E+03  1.169E+00  1.200E+01  2.400E-02  1.822E-01
   1   14    9     7     1    1.5000E+02  1.3842E+00   1.4862E+02  0.000E+00  0.000E+00  0.000E+00  1.03987E+03  2.288E+00  5.529E+01  5.593E-01  8.250E-01
   1   13    8     7     2    1.4862E+02  2.0029E+00   1.4661E+02  0.000E+00  0.000E+00  0.000E+00  1.03478E+03  2.279E+00  5.525E+01  6.147E-01  1.086E+00
   1   13    7     7     3    1.4661E+02  1.7621E+00   1.4485E+02  0.000E+00  0.000E+00  0.000E+00  1.02969E+03  2.269E+00  5.521E+01  5.584E-01  1.052E+00
   1   13    6     8     1    1.6811E+02  1.1954E+00   1.6691E+02  0.000E+00  0.000E+00  0.000E+00  1.02481E+03  2.936E+00  4.257E+01  4.338E-01  9.185E-01
   1   13    5     8     2    1.6691E+02  4.3152E-01   1.6648E+02  0.000E+00  0.000E+00  0.000E+00  1.01856E+03  2.931E+00  4.249E+01  4.330E-01  3.322E-01
   1   13    4     8     3    1.6648E+02 -1.5686E+00   1.6805E+02  0.000E+00  0.000E+00  0.000E+00  1.01231E+03  2.934E+00  4.255E+01  4.336E+00 -1.206E-01
   1   13    3     8     4    1.6805E+02 -3.2319E+00   1.7128E+02  0.000E+00  0.000E+00  0.000E+00  1.00608E+03  2.950E+00  4.278E+01  4.359E+00 -2.471E-01
   1   13    2     8     5    1.7128E+02 -2.4741E+00   1.7376E+02  0.000E+00  0.000E+00  0.000E+00  9.99844E+02  2.969E+00  4.304E+01  4.386E+00 -1.880E-01
   1   13    1     8     6    1.7376E+02 -1.9553E+00   1.7571E+02  0.000E+00  0.000E+00  0.000E+00  9.94858E+02  2.983E+00  4.325E+01  2.644E+00 -2.465E-01





UNSATURATED ZONE PACKAGE VOLUMETRIC BUDGET FOR  TIME STEP    30 STRESS PERIOD   49
  ------------------------------------------------------------------------------



     CUMULATIVE VOLUMES      L**3       RATES FOR THIS TIME STEP      L**3/T
     ------------------                 ------------------------

           IN:                                      IN:
           ---                                      ---
        INFILTRATION =  2012172309.8232          INFILTRATION =           0.8475

          OUT:                                     OUT:
          ----                                     ----
              UZF ET =  1722030964.6842                UZF ET =           0.7500
        UZF RECHARGE =   289551312.2108          UZF RECHARGE =           0.0002

            IN - OUT =      590032.9282              IN - OUT =       9.7251E-02

          STORAGE:                                 STORAGE:
          --------                                 --------
      STORAGE CHANGE =      590057.0545        STORAGE CHANGE =       9.7251E-02

 PERCENT DISCREPANCY IS DIFFERENCE BETWEEN IN-OUT MINUS CHANGE IN STORAGE
 DIVIDED BY THE AVERAGE OF IN AND OUT TIMES 100

 PERCENT DISCREPANCY =           0.00     PERCENT DISCREPANCY =           0.00






1
  VOLUMETRIC BUDGET FOR AGRICULTURAL FIELDS AT  END OF TIME STEP   30, STRESS PERIOD  49
  ------------------------------------------------------------------------------

     CUMULATIVE VOLUMES      L**3       RATES FOR THIS TIME STEP      L**3/T
     ------------------                 ------------------------

           IN:                                      IN:
           ---                                      ---
               AG WELLS  =  1905110912.0000                 AG WELLS  =           0.0000
      DIVERSION SEGMENTS =           0.0000        DIVERSION SEGMENTS =           0.0000
           GW IRRIGATION =           0.0000             GW IRRIGATION =           0.0000
           SW IRRIGATION =           0.0000             SW IRRIGATION =           0.0000
        SYSTEM LOSSES GW =           0.0000          SYSTEM LOSSES GW =           0.0000
        SYSTEM LOSSES SW =           0.0000          SYSTEM LOSSES SW =           0.0000

                TOTAL IN =  1905110912.0000                  TOTAL IN =           0.0000

          OUT:                                     OUT:
          ----                                     ----
               AG WELLS  =           0.0000                 AG WELLS  =           0.0000
      DIVERSION SEGMENTS =           0.0000        DIVERSION SEGMENTS =           0.0000
           GW IRRIGATION =  1905110912.0000             GW IRRIGATION =           0.0000
           SW IRRIGATION =           0.0000             SW IRRIGATION =           0.0000
        SYSTEM LOSSES GW =           0.0000          SYSTEM LOSSES GW =           0.0000
        SYSTEM LOSSES SW =           0.0000          SYSTEM LOSSES SW =           0.0000

               TOTAL OUT =  1905110912.0000                 TOTAL OUT =           0.0000

                IN - OUT =           0.0000                  IN - OUT =           0.0000

     PERCENT DISCREPANCY =           0.00         PERCENT DISCREPANCY =           0.00



1
  VOLUMETRIC BUDGET FOR ENTIRE MODEL AT END OF TIME STEP   30, STRESS PERIOD  49
  ------------------------------------------------------------------------------

     CUMULATIVE VOLUMES      L**3       RATES FOR THIS TIME STEP      L**3/T
     ------------------                 ------------------------

           IN:                                      IN:
           ---                                      ---
             STORAGE     =  2446656768.0000               STORAGE     =           6.4838
       CONSTANT HEAD     =           0.0000         CONSTANT HEAD     =           0.0000
     HEAD DEP BOUNDS     =    36187560.0000       HEAD DEP BOUNDS     =           0.2891
      STREAM LEAKAGE     =  1551348992.0000        STREAM LEAKAGE     =          12.5179
        UZF RECHARGE     =   289551488.0000          UZF RECHARGE     =       2.4866E-04
               GW ET     =           0.0000                 GW ET     =           0.0000
     SURFACE LEAKAGE     =           0.0000       SURFACE LEAKAGE     =           0.0000
           AG WELLS      =           0.0000             AG WELLS      =           0.0000

                TOTAL IN =  4323744768.0000                  TOTAL IN =          19.2909

          OUT:                                     OUT:
          ----                                     ----
             STORAGE     =  1095396352.0000               STORAGE     =           9.7724
       CONSTANT HEAD     =           0.0000         CONSTANT HEAD     =           0.0000
     HEAD DEP BOUNDS     =    36828080.0000       HEAD DEP BOUNDS     =           0.2887
      STREAM LEAKAGE     =  1268905856.0000        STREAM LEAKAGE     =           9.2299
        UZF RECHARGE     =           0.0000          UZF RECHARGE     =           0.0000
               GW ET     =    17516202.0000                 GW ET     =           0.0000
     SURFACE LEAKAGE     =           0.0000       SURFACE LEAKAGE     =           0.0000
           AG WELLS      =  1905110912.0000             AG WELLS      =           0.0000

               TOTAL OUT =  4323757568.0000                 TOTAL OUT =          19.2909

                IN - OUT =      -12800.0000                  IN - OUT =       1.5259E-05

     PERCENT DISCREPANCY =          -0.00         PERCENT DISCREPANCY =           0.00






         TIME SUMMARY AT END OF TIME STEP   30 IN STRESS PERIOD   49
                    SECONDS     MINUTES      HOURS       DAYS        YEARS
                    -----------------------------------------------------------
   TIME STEP LENGTH  87667.      1461.1      24.352      1.0147     2.77799E-03
 STRESS PERIOD TIME 2.63000E+06  43833.      730.56      30.440     8.33397E-02
         TOTAL TIME 1.26325E+08 2.10542E+06  35090.      1462.1      4.0030    
1


 Run end date and time (yyyy/mm/dd hh:mm:ss): 2021/02/05 12:32:35
 Elapsed run time: 7.343 Seconds

