                                  MODFLOW-NWT-SWR1 
      U.S. GEOLOGICAL SURVEY MODULAR FINITE-DIFFERENCE GROUNDWATER-FLOW MODEL
                            VERSION 1.2.0 03/01/2020
                    BASED ON MODFLOW-2005 VERSION 1.12.00 02/03/2017

 LIST FILE: ./output/Agwater1_high.lst
                         UNIT    9

 OPENING ./input/Agwater1.ba6
 FILE TYPE:BAS6   UNIT   75   STATUS:OLD    
 FORMAT:FORMATTED              ACCESS:SEQUENTIAL          

 OPENING ./input/Agwater1.upw
 FILE TYPE:UPW   UNIT    7   STATUS:OLD    
 FORMAT:FORMATTED              ACCESS:SEQUENTIAL          

 OPENING ./input/Agwater1.dis
 FILE TYPE:DIS   UNIT    8   STATUS:OLD    
 FORMAT:FORMATTED              ACCESS:SEQUENTIAL          

 OPENING ./input/Agwater1.nwt
 FILE TYPE:NWT   UNIT   13   STATUS:OLD    
 FORMAT:FORMATTED              ACCESS:SEQUENTIAL          

 OPENING ./input/Agwater1.oc
 FILE TYPE:OC   UNIT   14   STATUS:OLD    
 FORMAT:FORMATTED              ACCESS:SEQUENTIAL          

 OPENING ./input/Agwater1.sfr
 FILE TYPE:SFR   UNIT   15   STATUS:OLD    
 FORMAT:FORMATTED              ACCESS:SEQUENTIAL          

 OPENING ./input/Agwater1.ghb
 FILE TYPE:GHB   UNIT   17   STATUS:OLD    
 FORMAT:FORMATTED              ACCESS:SEQUENTIAL          

 OPENING ./input/Agwater1_high.uzf
 FILE TYPE:UZF   UNIT   19   STATUS:OLD    
 FORMAT:FORMATTED              ACCESS:SEQUENTIAL          

 OPENING ./input/Agwater1.gag
 FILE TYPE:GAGE   UNIT   32   STATUS:OLD    
 FORMAT:FORMATTED              ACCESS:SEQUENTIAL          

 OPENING ./input/seg1.tab
 FILE TYPE:DATA   UNIT   55   STATUS:UNKNOWN
 FORMAT:FORMATTED              ACCESS:SEQUENTIAL          

 OPENING ./input/seg9.tab
 FILE TYPE:DATA   UNIT   56   STATUS:UNKNOWN
 FORMAT:FORMATTED              ACCESS:SEQUENTIAL          

 OPENING ./input/Agwater1.ag
 FILE TYPE:AG   UNIT   57   STATUS:OLD    
 FORMAT:FORMATTED              ACCESS:SEQUENTIAL          

 OPENING ./output/EP1b_Agwater1_high.hed
 FILE TYPE:DATA   UNIT   62   STATUS:UNKNOWN
 FORMAT:FORMATTED              ACCESS:SEQUENTIAL          

 OPENING ./output/Agwater1GW_high.ts5
 FILE TYPE:DATA   UNIT  105   STATUS:UNKNOWN
 FORMAT:FORMATTED              ACCESS:SEQUENTIAL          

 OPENING ./output/Agwater1GW_high_ET.ts5
 FILE TYPE:DATA   UNIT  106   STATUS:UNKNOWN
 FORMAT:FORMATTED              ACCESS:SEQUENTIAL          

 OPENING ./output/Agwater1GW_high_ET.all
 FILE TYPE:DATA   UNIT  107   STATUS:UNKNOWN
 FORMAT:FORMATTED              ACCESS:SEQUENTIAL          

 OPENING ./output/Agwater1GW_high.all
 FILE TYPE:DATA   UNIT  108   STATUS:UNKNOWN
 FORMAT:FORMATTED              ACCESS:SEQUENTIAL          

 OPENING ./output/Agwater1_high.uzfot
 FILE TYPE:DATA(BINARY)   UNIT   61   STATUS:UNKNOWN
 FORMAT:BINARY                 ACCESS:SEQUENTIAL          

 OPENING ./output/Agwater1cbc_high.unf
 FILE TYPE:DATA(BINARY)   UNIT  102   STATUS:UNKNOWN
 FORMAT:BINARY                 ACCESS:SEQUENTIAL          

 OPENING ./output/Agwater1_high.uzf1
 FILE TYPE:DATA   UNIT   65   STATUS:UNKNOWN
 FORMAT:FORMATTED              ACCESS:SEQUENTIAL          

 OPENING ./output/Agwater1_high.uzf2
 FILE TYPE:DATA   UNIT   66   STATUS:UNKNOWN
 FORMAT:FORMATTED              ACCESS:SEQUENTIAL          

 OPENING ./output/Agwater1_high.uzf3
 FILE TYPE:DATA   UNIT   67   STATUS:UNKNOWN
 FORMAT:FORMATTED              ACCESS:SEQUENTIAL          

 OPENING ./output/Agwater1_high.uzf4
 FILE TYPE:DATA   UNIT   68   STATUS:UNKNOWN
 FORMAT:FORMATTED              ACCESS:SEQUENTIAL          

 OPENING ./output/Agwater1_high.flw
 FILE TYPE:DATA   UNIT   81   STATUS:UNKNOWN
 FORMAT:FORMATTED              ACCESS:SEQUENTIAL          

 OPENING ./output/Agwater1_high.sg1
 FILE TYPE:DATA   UNIT   83   STATUS:UNKNOWN
 FORMAT:FORMATTED              ACCESS:SEQUENTIAL          

 OPENING ./output/Agwater1_high.sg2
 FILE TYPE:DATA   UNIT   84   STATUS:UNKNOWN
 FORMAT:FORMATTED              ACCESS:SEQUENTIAL          

 OPENING ./output/Agwater1_high.sg3
 FILE TYPE:DATA   UNIT   85   STATUS:UNKNOWN
 FORMAT:FORMATTED              ACCESS:SEQUENTIAL          

 OPENING ./output/Agwater1_high.sg4
 FILE TYPE:DATA   UNIT   86   STATUS:UNKNOWN
 FORMAT:FORMATTED              ACCESS:SEQUENTIAL          

 OPENING ./output/Agwater1_high.sg5
 FILE TYPE:DATA   UNIT   87   STATUS:UNKNOWN
 FORMAT:FORMATTED              ACCESS:SEQUENTIAL          

 OPENING ./output/Agwater1_high.sg6
 FILE TYPE:DATA   UNIT   88   STATUS:UNKNOWN
 FORMAT:FORMATTED              ACCESS:SEQUENTIAL          

 OPENING ./output/Agwater1_high.sg7
 FILE TYPE:DATA   UNIT   89   STATUS:UNKNOWN
 FORMAT:FORMATTED              ACCESS:SEQUENTIAL          

 OPENING ./output/Agwater1_high.sg8
 FILE TYPE:DATA   UNIT   90   STATUS:UNKNOWN
 FORMAT:FORMATTED              ACCESS:SEQUENTIAL          

 BAS -- BASIC PACKAGE, VERSION 1.1.4, 4/01/2018 INPUT READ FROM UNIT   75
 
 MODFLOW was compiled using mixed precision
 Precision of REAL variables:           6
 Precision of DOUBLE PRECISION variables:          15

 DISCRETIZATION INPUT DATA READ FROM UNIT    8
 #Test problem 2-- Discretization input
 #Example problem using the UZF1 Package
    1 LAYERS        15 ROWS        10 COLUMNS
   49 STRESS PERIOD(S) IN SIMULATION
 MODEL TIME UNIT IS SECONDS
 MODEL LENGTH UNIT IS FEET
  Confining bed flag for each layer:
   0

                     DELR =   5000.00    

                     DELC =   5000.00    



           TOP ELEVATION OF LAYER 1
 READING ON UNIT    8 WITH FORMAT: (10F7.0)            

            1           2           3           4           5           6           7           8           9          10
 ........................................................................................................................
   1    1105.       1105.       0.000       0.000       0.000       0.000       0.000       0.000       0.000       0.000    
   2    1105.       1095.       1105.       0.000       0.000       1100.       1100.       1110.       0.000       0.000    
   3    0.000       1100.       1085.       1080.       1078.       1076.       1073.       1090.       0.000       0.000    
   4    1110.       1100.       1090.       1085.       1076.       1080.       1080.       1070.       1100.       0.000    
   5    1110.       1100.       1085.       1080.       1078.       1074.       1077.       1066.       1075.       1080.    
   6    1105.       1095.       1080.       1077.       1073.       1069.       1070.       1063.       1085.       1095.    
   7    1105.       1090.       1075.       1072.       1070.       1065.       1065.       1069.       1090.       0.000    
   8    0.000       1080.       1070.       1068.       1063.       1060.       1063.       1067.       1090.       0.000    
   9    0.000       1075.       1065.       1062.       1058.       1052.       1055.       1065.       1090.       0.000    
  10    0.000       1070.       1060.       1055.       1046.       1046.       1044.       1060.       1088.       1100.    
  11    0.000       1055.       1050.       1045.       1041.       1042.       1040.       1050.       1075.       0.000    
  12    1027.       1028.       1028.       1032.       1032.       1033.       1032.       1040.       1060.       0.000    
  13    997.0       1004.       1008.       1014.       1020.       1027.       1032.       1038.       1050.       0.000    
  14    0.000       1030.       1040.       1045.       1050.       1050.       1050.       1050.       1044.       0.000    
  15    0.000       0.000       1080.       1080.       1080.       1080.       0.000       0.000       0.000       0.000    



             MODEL LAYER BOTTOM EL. FOR LAYER   1
 READING ON UNIT    8 WITH FORMAT: (10F7.0)            

            1           2           3           4           5           6           7           8           9          10
 ........................................................................................................................
   1    1000.       1000.       0.000       0.000       0.000       0.000       0.000       0.000       0.000       0.000    
   2    1000.       900.0       900.0       0.000       0.000       950.0       950.0       950.0       0.000       0.000    
   3    0.000       850.0       670.0       680.0       680.0       770.0       770.0       890.0       0.000       0.000    
   4    925.0       850.0       650.0       650.0       650.0       680.0       740.0       850.0       950.0       0.000    
   5    925.0       800.0       650.0       600.0       600.0       600.0       650.0       720.0       850.0       950.0    
   6    925.0       800.0       650.0       600.0       550.0       600.0       650.0       720.0       850.0       970.0    
   7    925.0       800.0       650.0       600.0       550.0       600.0       650.0       720.0       950.0       0.000    
   8    0.000       850.0       700.0       650.0       570.0       600.0       700.0       850.0       950.0       0.000    
   9    0.000       850.0       700.0       650.0       540.0       580.0       700.0       850.0       950.0       0.000    
  10    0.000       850.0       700.0       630.0       530.0       580.0       650.0       800.0       900.0       950.0    
  11    0.000       850.0       700.0       620.0       580.0       620.0       700.0       800.0       900.0       0.000    
  12    900.0       830.0       710.0       640.0       600.0       650.0       700.0       800.0       900.0       0.000    
  13    900.0       810.0       750.0       700.0       650.0       700.0       750.0       800.0       900.0       0.000    
  14    0.000       950.0       850.0       850.0       850.0       850.0       850.0       850.0       850.0       0.000    
  15    0.000       0.000       950.0       950.0       950.0       950.0       0.000       0.000       0.000       0.000    


 STRESS PERIOD     LENGTH       TIME STEPS     MULTIPLIER FOR DELT    SS FLAG
 ----------------------------------------------------------------------------
        1         86400.00          1                    1.000         SS
        2         2630000.         30                    1.000         TR
        3         2630000.         30                    1.000         TR
        4         2630000.         30                    1.000         TR
        5         2630000.         30                    1.000         TR
        6         2630000.         30                    1.000         TR
        7         2630000.         30                    1.000         TR
        8         2630000.         30                    1.000         TR
        9         2630000.         30                    1.000         TR
       10         2630000.         30                    1.000         TR
       11         2630000.         30                    1.000         TR
       12         2630000.         30                    1.000         TR
       13         2630000.         30                    1.000         TR
       14         2630000.         30                    1.000         TR
       15         2630000.         30                    1.000         TR
       16         2630000.         30                    1.000         TR
       17         2630000.         30                    1.000         TR
       18         2630000.         30                    1.000         TR
       19         2630000.         30                    1.000         TR
       20         2630000.         30                    1.000         TR
       21         2630000.         30                    1.000         TR
       22         2630000.         30                    1.000         TR
       23         2630000.         30                    1.000         TR
       24         2630000.         30                    1.000         TR
       25         2630000.         30                    1.000         TR
       26         2630000.         30                    1.000         TR
       27         2630000.         30                    1.000         TR
       28         2630000.         30                    1.000         TR
       29         2630000.         30                    1.000         TR
       30         2630000.         30                    1.000         TR
       31         2630000.         30                    1.000         TR
       32         2630000.         30                    1.000         TR
       33         2630000.         30                    1.000         TR
       34         2630000.         30                    1.000         TR
       35         2630000.         30                    1.000         TR
       36         2630000.         30                    1.000         TR
       37         2630000.         30                    1.000         TR
       38         2630000.         30                    1.000         TR
       39         2630000.         30                    1.000         TR
       40         2630000.         30                    1.000         TR
       41         2630000.         30                    1.000         TR
       42         2630000.         30                    1.000         TR
       43         2630000.         30                    1.000         TR
       44         2630000.         30                    1.000         TR
       45         2630000.         30                    1.000         TR
       46         2630000.         30                    1.000         TR
       47         2630000.         30                    1.000         TR
       48         2630000.         30                    1.000         TR
       49         2630000.         30                    1.000         TR

 COMBINED STEADY-STATE AND TRANSIENT SIMULATION



 
 #Test Simulation 2-- Example problem using the UZF1 Package                     
 #Modified from example Problem 1 of SFR1 documentation report                   
 THE FREE FORMAT OPTION HAS BEEN SELECTED



                     BOUNDARY ARRAY FOR LAYER   1
 READING ON UNIT   75 WITH FORMAT: (20I4)              

                1           2           3           4           5           6           7           8           9          10
 ............................................................................................................................
   1            1           1           0           0           0           0           0           0           0           0
   2            1           1           1           0           0           1           1           1           0           0
   3            0           1           1           1           1           1           1           1           0           0
   4            1           1           1           1           1           1           1           1           1           0
   5            1           1           1           1           1           1           1           1           1           1
   6            1           1           1           1           1           1           1           1           1           1
   7            1           1           1           1           1           1           1           1           1           0
   8            0           1           1           1           1           1           1           1           1           0
   9            0           1           1           1           1           1           1           1           1           0
  10            0           1           1           1           1           1           1           1           1           1
  11            0           1           1           1           1           1           1           1           1           0
  12            1           1           1           1           1           1           1           1           1           0
  13            1           1           1           1           1           1           1           1           1           0
  14            0           1           1           1           1           1           1           1           1           0
  15            0           0           1           1           1           1           0           0           0           0

 AQUIFER HEAD WILL BE SET TO   6999.0     AT ALL NO-FLOW NODES (IBOUND=0).



                       INITIAL HEAD FOR LAYER   1
 READING ON UNIT   75 WITH FORMAT: (10F8.0)            

            1           2           3           4           5           6           7           8           9          10
 ........................................................................................................................
   1    1093.       1089.       6999.       6999.       6999.       6999.       6999.       6999.       6999.       6999.    
   2    1090.       1087.       1081.       6999.       6999.       1072.       1071.       1071.       6999.       6999.    
   3    6999.       1079.       1078.       1074.       1072.       1071.       1069.       1068.       6999.       6999.    
   4    1069.       1071.       1070.       1067.       1065.       1064.       1064.       1066.       1066.       6999.    
   5    1065.       1064.       1063.       1062.       1061.       1061.       1060.       1062.       1066.       1068.    
   6    1060.       1058.       1057.       1056.       1056.       1057.       1057.       1059.       1062.       1066.    
   7    1056.       1053.       1052.       1051.       1051.       1052.       1053.       1055.       1056.       6999.    
   8    6999.       1046.       1046.       1046.       1046.       1046.       1048.       1050.       1050.       6999.    
   9    6999.       1039.       1039.       1039.       1040.       1041.       1042.       1043.       1044.       6999.    
  10    6999.       1031.       1032.       1033.       1034.       1035.       1037.       1038.       1039.       1042.    
  11    6999.       1021.       1023.       1027.       1029.       1030.       1032.       1034.       1036.       6999.    
  12    1001.       1009.       1015.       1020.       1023.       1026.       1029.       1030.       1034.       6999.    
  13    994.5      1000.0       1007.       1013.       1019.       1024.       1029.       1034.       1036.       6999.    
  14    6999.       1004.       1009.       1014.       1019.       1024.       1029.       1035.       1039.       6999.    
  15    6999.       6999.       1012.       1015.       1019.       1022.       6999.       6999.       6999.       6999.    

 OUTPUT CONTROL IS SPECIFIED ONLY AT TIME STEPS FOR WHICH OUTPUT IS DESIRED
 HEADS WILL BE SAVED WITH FORMAT: (10F10.3)           
 SAVED HEADS WILL BE LABELED
 COMPACT CELL-BY-CELL BUDGET FILES WILL BE WRITTEN
 HEAD PRINT FORMAT CODE IS   4    DRAWDOWN PRINT FORMAT CODE IS   0
 HEADS WILL BE SAVED ON UNIT   62    DRAWDOWNS WILL BE SAVED ON UNIT    0
 # NWT Input File
 # Test Problem 3 for MODFLOW-NWT
 #HEADTOL  FLUXTOL MAXITEROUT THICKFACT LINMETH IPRNWT IBOTAV OPTIONS DBDREDUCE DBDINCREASE DBDGAMMA MOMFACT BACKFLAG MAXBACKITER BACKTOL BACKREDUCE

 NWT1 -- Newton Solver, VERSION 1.1.4, 4/01/2018
         INPUT READ FROM UNIT 13

 SPECIFIED OPTION:
 SOLVER INPUT VALUES ARE SPECIFIED BY USER
 ***XMD linear solver will be used***
 
   CONVERGENCE CRITERION OF   0.100000E-03 FOR HEAD SOLUTION
   AND A TOLERANCE OF   0.100000E+03 FOR FLOW SOLUTION AND 
   A MAXIMUM OF   500 OUTER ITERATIONS. 


   D-B-D REDUCTION FACTOR OF    0.970000E+00 AND 
   A D-B-D INCREASE FACTOR OF    0.100000E-04 AND 
   A D-B-D RELAXATION OF    0.000000E+00 AND 
   A MOMENTUM FACTOR OF    0.100000E+00 .


 ***BACKTRACKING IS INACTIVE***
 XMD -- LINEAR SOLUTION BY XMD PACKAGE VERSION 1.30
     BY MOTOMU IBARAKI, OHIO STATE UNIVERSITY, COLOMBUS, OH
                 INPUT READ FROM UNIT 13
 ACCELERATION METHOD                    (IACL) =         1
 NODE ORDERING FLAG                   (NORDER) =         0
 LEVEL OF FILL                         (LEVEL) =         7
 MAXIMUM NUMBER OF ORTHOGONALIZATIONS  (NORTH) =         7
 INDEX FOR USING REDUCED SYSTEM      (IREDSYS) =         1
 RESID. REDUCTION CONVERGE CRITERION  (RRCTOL) =  0.000000E+00
 INDEX FOR USING DROP TOLERANCE     (IDROPTOL) =         1
 DROP TOLERANCE VALUE                  (EPSRN) =  0.500000E-02
 CONVERGENCE CRITERIA OF           (HCLOSEXMD) =  0.100000E-03
 MAX. NUMBER OF LINEAR ITERATIONS  (MXITERXMD) =        50


 UPW1 -- UPSTREAM WEIGHTING FLOW PACKAGE, VERSION 1.1.4, 4/01/2018
         INPUT READ FROM UNIT  7

 #Layer-Property Flow Package input for test simulation 2
 CELL-BY-CELL FLOWS WILL BE SAVED ON UNIT  102
 No named parameters

   LAYER FLAGS:
 LAYER       LAYTYP          LAYAVG    CHANI           LAYVKA           LAYWET
 ---------------------------------------------------------------------------
    1             1             0     1.000E+00             0             0

   INTERPRETATION OF LAYER FLAGS:
                        INTERBLOCK     HORIZONTAL    DATA IN
         LAYER TYPE   TRANSMISSIVITY   ANISOTROPY   ARRAY VKA   WETTABILITY
 LAYER   (LAYTYP)        (LAYAVG)      (CHANI)     (LAYVKA)       (LAYWET)
 ---------------------------------------------------------------------------
    1   CONVERTIBLE      HARMONIC     1.000E+00    VERTICAL K  NON-WETTABLE



              HYD. COND. ALONG ROWS FOR LAYER   1
 READING ON UNIT    7 WITH FORMAT: (10F5.0)            

            1           2           3           4           5           6           7           8           9          10
 ........................................................................................................................
   1   2.0000E-03  2.0000E-03   0.000       0.000       0.000       0.000       0.000       0.000       0.000       0.000    
   2   4.0000E-04  2.0000E-03  2.0000E-03   0.000       0.000      4.0000E-04  4.0000E-04  4.0000E-04   0.000       0.000    
   3    0.000      4.0000E-04  2.0000E-03  2.0000E-03  4.0000E-04  4.0000E-04  4.0000E-04  4.0000E-04   0.000       0.000    
   4   4.0000E-04  4.0000E-04  4.0000E-04  2.0000E-03  2.0000E-03  2.0000E-03  4.0000E-04  4.0000E-04  4.0000E-04   0.000    
   5   4.0000E-04  4.0000E-04  4.0000E-04  2.0000E-03  2.0000E-03  2.0000E-03  2.0000E-03  2.0000E-03  2.0000E-03  2.0000E-03
   6   4.0000E-04  4.0000E-04  4.0000E-04  2.0000E-03  2.0000E-03  2.0000E-03  2.0000E-03  2.0000E-03  4.0000E-04  4.0000E-04
   7   4.0000E-04  4.0000E-04  4.0000E-04  2.0000E-03  2.0000E-03  2.0000E-03  2.0000E-03  2.0000E-03  4.0000E-04   0.000    
   8    0.000      4.0000E-04  4.0000E-04  2.0000E-03  2.0000E-03  2.0000E-03  2.0000E-03  4.0000E-04  4.0000E-04   0.000    
   9    0.000      4.0000E-04  4.0000E-04  2.0000E-03  2.0000E-03  2.0000E-03  2.0000E-03  4.0000E-04  4.0000E-04   0.000    
  10    0.000      4.0000E-04  4.0000E-04  2.0000E-03  2.0000E-03  2.0000E-03  2.0000E-03  4.0000E-04  4.0000E-04  4.0000E-04
  11    0.000      4.0000E-04  4.0000E-04  2.0000E-03  2.0000E-03  2.0000E-03  2.0000E-03  4.0000E-04  4.0000E-04   0.000    
  12   4.0000E-04  4.0000E-04  2.0000E-03  2.0000E-03  2.0000E-03  2.0000E-03  2.0000E-03  4.0000E-04  4.0000E-04   0.000    
  13   2.0000E-03  2.0000E-03  2.0000E-03  2.0000E-03  2.0000E-03  2.0000E-03  2.0000E-03  2.0000E-03  2.0000E-03   0.000    
  14    0.000      4.0000E-04  4.0000E-04  4.0000E-04  4.0000E-04  4.0000E-04  4.0000E-04  4.0000E-04  2.0000E-03   0.000    
  15    0.000       0.000      4.0000E-04  4.0000E-04  4.0000E-04  4.0000E-04   0.000       0.000       0.000       0.000    

      VERTICAL HYD. COND. =  1.000000E-06 FOR LAYER   1

         SPECIFIC STORAGE =  1.000000E-06 FOR LAYER   1



                     SPECIFIC YIELD FOR LAYER   1
 READING ON UNIT    7 WITH FORMAT: (10F5.0)            

            1           2           3           4           5           6           7           8           9          10
 ........................................................................................................................
   1   0.2000      0.2000       0.000       0.000       0.000       0.000       0.000       0.000       0.000       0.000    
   2   0.1000      0.2000      0.2000       0.000       0.000      0.1000      0.1000      0.1000       0.000       0.000    
   3    0.000      0.1000      0.2000      0.2000      0.1000      0.1000      0.1000      0.1000       0.000       0.000    
   4   0.1000      0.1000      0.1000      0.2000      0.2000      0.2000      0.1000      0.1000      0.1000       0.000    
   5   0.1000      0.1000      0.1000      0.2000      0.2000      0.2000      0.2000      0.2000      0.2000      0.2000    
   6   0.1000      0.1000      0.1000      0.2000      0.2000      0.2000      0.2000      0.2000      0.1000      0.1000    
   7   0.1000      0.1000      0.1000      0.2000      0.2000      0.2000      0.2000      0.2000      0.1000       0.000    
   8    0.000      0.1000      0.1000      0.2000      0.2000      0.2000      0.2000      0.1000      0.1000       0.000    
   9    0.000      0.1000      0.1000      0.2000      0.2000      0.2000      0.2000      0.1000      0.1000       0.000    
  10    0.000      0.1000      0.1000      0.2000      0.2000      0.2000      0.2000      0.1000      0.1000      0.1000    
  11    0.000      0.1000      0.1000      0.2000      0.2000      0.2000      0.2000      0.1000      0.1000       0.000    
  12   0.1000      0.1000      0.2000      0.2000      0.2000      0.2000      0.2000      0.1000      0.1000       0.000    
  13   0.2000      0.2000      0.2000      0.2000      0.2000      0.2000      0.2000      0.2000      0.2000       0.000    
  14    0.000      0.1000      0.1000      0.1000      0.1000      0.1000      0.1000      0.1000      0.2000       0.000    
  15    0.000       0.000      0.1000      0.1000      0.1000      0.1000       0.000       0.000       0.000       0.000    

 GHB -- GENERAL-HEAD BOUNDARY PACKAGE, VERSION 7, 5/2/2005
         INPUT READ FROM UNIT   17
 No named parameters
 MAXIMUM OF      2 ACTIVE GHB CELLS AT ONE TIME
 CELL-BY-CELL FLOWS WILL BE PRINTED WHEN ICBCFL NOT 0


     0 GHB parameters

 SFR7 -- STREAMFLOW ROUTING PACKAGE, VERSION 1.0.5, 2012-04-05
         INPUT READ FROM UNIT  15
 #SFR2 Package input for Testing supplimental pumping and irrigation
 No named parameters

 PROCESSING SFR2 OPTIONS
 
          1 Specified inflow files will be read with a maximum of        759 row entries per file
 
Stream loss will be calculated as a factor of the streambed hydraulic conductivity. Multiplication factor is equal to     0.1000000015E+00

 END PROCESSING SFR2 OPTIONS
 


 NUMBER OF STREAM REACHES IS   36

 NUMBER OF STREAM SEGMENTS IS    8

 NUMBER OF STREAM PARAMETERS IS    0

 NUMBER OF STREAM SEGMENTS DEFINED USING PARAMETERS IS              0

 MAXIMUM ERROR FOR STREAM LEAKAGE RATES IS  1.00E-06

 CONSTANT FOR MANNINGS EQUATION IS  1.4860E+00



 STREAM OUTPUT WILL BE WRITTEN TO FILE ON UNIT   81


   STREAM NETWORK DESCRIPTION: 

   LAYER    ROW    COL   SEGMENT   REACH     LENGTH
                          NUMBER   NUMBER    IN CELL        
   --------------------------------------------------
      1      1      1       1        1    4.5000E+03
      1      2      2       1        2    7.0000E+03
      1      3      3       1        3    6.0000E+03
      1      3      4       1        4    5.5500E+03
      1      4      5       2        1    6.5000E+03
      1      5      6       2        2    5.0000E+03
      1      6      6       2        3    5.0000E+03
      1      7      6       2        4    5.0000E+03
      1      8      6       2        5    5.0000E+03
      1      3      5       3        1    5.0000E+03
      1      3      6       3        2    5.0000E+03
      1      3      7       3        3    4.5000E+03
      1      4      8       3        4    6.0000E+03
      1      5      8       3        5    5.0000E+03
      1      6      8       3        6    2.0000E+03
      1      5     10       4        1    2.5000E+03
      1      5      9       4        2    5.0000E+03
      1      6      8       4        3    3.5000E+03
      1      6      8       5        1    4.0000E+03
      1      7      7       5        2    5.0000E+03
      1      8      7       5        3    3.5000E+03
      1      8      6       5        4    2.5000E+03
      1      9      6       6        1    5.0000E+03
      1     10      7       6        2    5.0000E+03
      1     11      7       6        3    5.0000E+03
      1     12      7       6        4    5.0000E+03
      1     13      7       6        5    2.0000E+03
      1     14      9       7        1    5.0000E+03
      1     13      8       7        2    5.5000E+03
      1     13      7       7        3    5.0000E+03
      1     13      6       8        1    5.0000E+03
      1     13      5       8        2    5.0000E+03
      1     13      4       8        3    5.0000E+03
      1     13      3       8        4    5.0000E+03
      1     13      2       8        5    5.0000E+03
      1     13      1       8        6    3.0000E+03




 UZF1 -- UNSATURATED FLOW PACKAGE, VERSION 1.5, 09/10/2019
         INPUT READ FROM UNIT 19
 #UZF Package input for test simulation 2
 No named parameters

 PROCESSING UZF OPTIONS
 
 
 INITIAL WATER CONTENT (THTI) WILL BE 
READ FOR THE FIRST SS OR TR STRESS PERIOD
 
 
 RESIDUAL WATER CONTENT (THTR) WILL BE 
READ AND USED FOR THE FIRST TRANSIENT STRESS 
PERIOD
 
 
AIR ENTRY PRESSURE AND ROOT PRESSURE WILL BE 
SPECIFIED BY USER AND UZ ET WILL BE SIMULATED 
AS PRESSURE-HEAD DEPENDENT
 
 
INFILTRATION WILL BE REJECTED USING 
LAND SURFACE K
 
 
HYDRAULIC CONDUCTIVITY OF LAND SURFACE 
WILL BE READ
 

 END PROCESSING UZF OPTIONS



            AREAL EXTENT OF UZ FLOW
 READING ON UNIT   19 WITH FORMAT: (20I4)              

                1           2           3           4           5           6           7           8           9          10
 ............................................................................................................................
   1            1           1           0           0           0           0           0           0           0           0
   2            1           1           1           0           0           1           1           1           0           0
   3            0           1           1           1           1           1           1           1           0           0
   4            1           1           1           1           1           1           1           1           1           0
   5            1           1           1           1           1           1           1           1           1           1
   6            1           1           1           1           1           1           1           1           1           1
   7            1           1           1           1           1           1           1           1           1           0
   8            0           1           1           1           1           1           1           1           1           0
   9            0           1           1           1           1           1           1           1           1           0
  10            0           1           1           1           1           1           1           1           1           1
  11            0           1           1           1           1           1           1           1           1           0
  12            1           1           1           1           1           1           1           1           1           0
  13            1           1           1           1           1           1           1           1           1           0
  14            0           1           1           1           1           1           1           1           1           0
  15            0           0           1           1           1           1           0           0           0           0
 OPTION 1 -- RECHARGE IN UZF TO TOP LAYER ONLY 



            ROUTING OVERLAND RUNOFF
 READING ON UNIT   19 WITH FORMAT: (20I4)              

                1           2           3           4           5           6           7           8           9          10
 ............................................................................................................................
   1            1           1           0           0           0           0           0           0           0           0
   2            1           1           1           0           0           3           3           3           0           0
   3            0           1           1           1           3           3           3           3           0           0
   4            8           8           2           2           2           2           2           3           3           0
   5            8           8           8           8           2           2           2           3           4           4
   6            8           8           8           8           8           2           2           4           4           4
   7            8           8           8           8           8           2           5           5           5           0
   8            0           8           8           8           8           2           5           5           5           0
   9            0           8           8           8           8           6           6           6           6           0
  10            0           8           8           8           8           6           6           6           6           6
  11            0           8           8           8           8           8           6           6           7           0
  12            8           8           8           8           8           8           6           7           7           0
  13            8           8           8           8           8           8           7           7           7           0
  14            0           8           8           8           8           8           7           7           7           0
  15            0           0           8           8           8           8           0           0           0           0



               SATURATED VERTICAL K
 READING ON UNIT   19 WITH FORMAT: (10F4.0)            

            1           2           3           4           5           6           7           8           9          10
 ........................................................................................................................
   1   1.0000E-04  1.0000E-04   0.000       0.000       0.000       0.000       0.000       0.000       0.000       0.000    
   2   1.0000E-04  1.0000E-04  1.0000E-04   0.000       0.000      1.0000E-04  1.0000E-04  1.0000E-04   0.000       0.000    
   3    0.000      1.0000E-04  1.0000E-04  1.0000E-04  1.0000E-04  1.0000E-04  1.0000E-04  1.0000E-04   0.000       0.000    
   4   1.0000E-04  1.0000E-04  1.0000E-04  1.0000E-04  1.0000E-04  1.0000E-04  1.0000E-04  1.0000E-04  1.0000E-04   0.000    
   5   1.0000E-04  1.0000E-04  1.0000E-04  1.0000E-04  1.0000E-04  1.0000E-04  1.0000E-04  1.0000E-04  1.0000E-04  1.0000E-04
   6   1.0000E-04  1.0000E-04  1.0000E-04  1.0000E-04  1.0000E-04  1.0000E-04  1.0000E-04  1.0000E-04  1.0000E-04  1.0000E-04
   7   1.0000E-04  1.0000E-04  1.0000E-04  1.0000E-04  1.0000E-04  1.0000E-04  1.0000E-04  1.0000E-04  1.0000E-04   0.000    
   8    0.000      1.0000E-04  1.0000E-04  1.0000E-04  1.0000E-04  1.0000E-04  1.0000E-04  1.0000E-04  1.0000E-04   0.000    
   9    0.000      1.0000E-04  1.0000E-04  1.0000E-04  1.0000E-04  1.0000E-04  1.0000E-04  1.0000E-04  1.0000E-04   0.000    
  10    0.000      1.0000E-04  1.0000E-04  1.0000E-04  1.0000E-04  1.0000E-04  1.0000E-04  1.0000E-04  1.0000E-04  1.0000E-04
  11    0.000      1.0000E-04  1.0000E-04  1.0000E-04  1.0000E-04  1.0000E-04  1.0000E-04  1.0000E-04  1.0000E-04   0.000    
  12   1.0000E-04  1.0000E-04  1.0000E-04  1.0000E-04  1.0000E-04  1.0000E-04  1.0000E-04  1.0000E-04  1.0000E-04   0.000    
  13   1.0000E-04  1.0000E-04  1.0000E-04  1.0000E-04  1.0000E-04  1.0000E-04  1.0000E-04  1.0000E-04  1.0000E-04   0.000    
  14    0.000      1.0000E-04  1.0000E-04  1.0000E-04  1.0000E-04  1.0000E-04  1.0000E-04  1.0000E-04  1.0000E-04   0.000    
  15    0.000       0.000      1.0000E-04  1.0000E-04  1.0000E-04  1.0000E-04   0.000       0.000       0.000       0.000    



            LAND SURFACE VERTICAL K
 READING ON UNIT   19 WITH FORMAT: (10F4.0)            

            1           2           3           4           5           6           7           8           9          10
 ........................................................................................................................
   1   1.0000E-05  1.0000E-05   0.000       0.000       0.000       0.000       0.000       0.000       0.000       0.000    
   2   1.0000E-05  1.0000E-05  1.0000E-05   0.000       0.000      1.0000E-05  1.0000E-05  1.0000E-05   0.000       0.000    
   3    0.000      1.0000E-05  1.0000E-05  1.0000E-05  1.0000E-05  1.0000E-05  1.0000E-05  1.0000E-05   0.000       0.000    
   4   1.0000E-05  1.0000E-05  1.0000E-05  1.0000E-05  1.0000E-05  1.0000E-05  1.0000E-05  1.0000E-05  1.0000E-05   0.000    
   5   1.0000E-05  1.0000E-05  1.0000E-05  1.0000E-05  1.0000E-05  1.0000E-05  1.0000E-05  1.0000E-05  1.0000E-05  1.0000E-05
   6   1.0000E-05  1.0000E-05  1.0000E-05  1.0000E-05  1.0000E-05  1.0000E-05  1.0000E-05  1.0000E-05  1.0000E-05  1.0000E-05
   7   1.0000E-05  1.0000E-05  1.0000E-05  1.0000E-05  1.0000E-05  1.0000E-05  1.0000E-05  1.0000E-05  1.0000E-05   0.000    
   8    0.000      1.0000E-05  1.0000E-05  1.0000E-05  1.0000E-05  1.0000E-05  1.0000E-05  1.0000E-05  1.0000E-05   0.000    
   9    0.000      1.0000E-05  1.0000E-05  1.0000E-05  1.0000E-05  1.0000E-05  1.0000E-05  1.0000E-05  1.0000E-05   0.000    
  10    0.000      1.0000E-05  1.0000E-05  1.0000E-05  1.0000E-05  1.0000E-05  1.0000E-05  1.0000E-05  1.0000E-05  1.0000E-05
  11    0.000      1.0000E-05  1.0000E-05  1.0000E-05  1.0000E-05  1.0000E-05  1.0000E-05  1.0000E-05  1.0000E-05   0.000    
  12   1.0000E-05  1.0000E-05  1.0000E-05  1.0000E-05  1.0000E-05  1.0000E-05  1.0000E-05  1.0000E-05  1.0000E-05   0.000    
  13   1.0000E-05  1.0000E-05  1.0000E-05  1.0000E-05  1.0000E-05  1.0000E-05  1.0000E-05  1.0000E-05  1.0000E-05   0.000    
  14    0.000      1.0000E-05  1.0000E-05  1.0000E-05  1.0000E-05  1.0000E-05  1.0000E-05  1.0000E-05  1.0000E-05   0.000    
  15    0.000       0.000      1.0000E-05  1.0000E-05  1.0000E-05  1.0000E-05   0.000       0.000       0.000       0.000    

     BROOKS-COREY EPSILON =   4.50000    

  SATURATED WATER CONTENT =  0.300000    

   RESIDUAL WATER CONTENT =  8.000000E-02

    INITIAL WATER CONTENT =  8.000000E-02

UNSATURATED FLOW RESULTS WILL BE PRINTED TO SEPARATE FILES FOR SELECTED MODEL CELLS, AND TIME STEPS AS DEFINED BY OUTPUT CONTROL PACKAGE 

SELECTED MODEL CELLS ARE: 
 ROW NUMBER  COLUMN NUMBER  FORTRAN UNIT NUMBER  OUTPUT OPTION


       6             4                 65                 1
       6             5                 66                 2
       8             4                 67                 3
       0             0                 68                 4



   8 GAGING STATIONS WERE SPECIFIED.
     (Lakes are identified by a negative value of the Lake Number)
     RECORDS WILL BE WRITTEN TO SEPARATE OUTPUT FILES REPRESENTED BY FOLLOWING UNIT NUMBERS:

 Stream Gages:
  GAGE #   SEGMENT   REACH   UNIT   OUTTYPE
       1       1       4      83       1
       2       2       3      84       1
       3       3       5      85       1
       4       4       3      86       1
       5       5       4      87       4
       6       6       5      88       4
       7       7       3      89       4
       8       8       6      90       4





 AG -- AG PACKAGE FOR NWT VERSION 1.1.3,  8/01/2017 INPUT READ FROM UNIT   57
 # AG options

 PROCESSING AG OPTIONS
 
 AGRICULTURAL DEMANDS WILL BE CALCULATED USING ET DEFICIT
 
 
 OPTION TO APPLY PUMPED WATER AS IRRIGATION IS ACTIVE. PUMPED IRRIGATION WATER WILL BE APPLIED TO          6 CELLS/RHUS.
 
 
 THE MAXIMUM NUMBER OF WELLS FOR SUPPLEMENTING DIVERSIONS OR APPLYING IRRIGATION IS          6 WELLS.
 
 
  UNFORMATTED CELL BY CELL RATES FOR SUP AND IRR WELLS WILL BE SAVED TO FILE UNIT NUMBER         -2
 
 
  UNFORMATTED CELL BY CELL RATES FOR SUP AND IRR WELLS WILL BE SAVED TO FILE UNIT NUMBER         -2
 
 
  GROUND WATER IRRIGATION, POTENTIAL AND ACTUAL ET WILL BE SAVED TO TIMES SERIES OUTPUT FILES.
 
 
  GROUND WATER IRRIGATION, POTENTIAL AND ACTUAL ET WILL BE SAVED TO TIMES SERIES OUTPUT FILES.
 

 END PROCESSING AG OPTIONS
 # AG time series

 PROCESSING TIME SERIES

 FINISHED READING TIME SERIES
 A total number of          0 AG output time series files were activated for SURFACE WATER 
 A total number of          2 AG output time series files were activated for GROUNDWATER 
 A total number of          0 AG output time series files were activated for SURFACE WATER ET
 A total number of          2 AG output time series files were activated for GROUNDWATER ET
1
                            STRESS PERIOD NO.    1, LENGTH =   86400.00    
                            -----------------------------------------------

                              NUMBER OF TIME STEPS =     1

                               MULTIPLIER FOR DELT =     1.000

                            INITIAL TIME STEP SIZE =   86400.00    

 BOUND. NO. LAYER   ROW   COL     STAGE      CONDUCTANCE         
 ----------------------------------------------------------------
      1      1     13      1       988.0          0.3800E-01
      2      1     14      9       1045.          0.3800E-01

      2 GHB CELLS



 CLASSIFICATION & COUNT OF STREAM SEGMENTS BASED ON SOURCE OF INFLOW:

                HEADWATER     DIVERSION     RECEIVES TRIBUTARY FLOW
                ---------     ---------     -----------------------
                     3              1               4



                    INPUT DATA FOR EACH STREAM SEGMENT
 ---------------------------------------------------------------------------------------------

 SEGMENT    SEG.     INFLOW   OVERLAND   STREAM    STREAM   ICALC  OUTFLOW  DIVERSION PRIORITY
    NO.    LENGTH     RATE     RUNOFF      ET       PPT.    METH.  TO SEG.  FROM SEG.    NO.

      1  2.305E+04 2.500E+01 0.000E+00 0.000E+00 0.000E+00    4        2        0        0
      2  2.650E+04 0.000E+00 0.000E+00 0.000E+00 0.000E+00    1        6        0        0
      3  2.750E+04 2.000E+00 0.000E+00 0.000E+00 0.000E+00    0        5        1        0
      4  1.100E+04 1.000E+01 0.000E+00 0.000E+00 0.000E+00    1        5        0        0
      5  1.500E+04 0.000E+00 0.000E+00 0.000E+00 0.000E+00    3        6        0        0
      6  2.200E+04 0.000E+00 0.000E+00 0.000E+00 0.000E+00    1        8        0        0
      7  1.550E+04 1.500E+02 0.000E+00 0.000E+00 0.000E+00    2        8        0        0
      8  2.800E+04 0.000E+00 0.000E+00 0.000E+00 0.000E+00    2        0        0        0


         STREAMBED PROPERTIES AND STREAM DIMENSIONS

 SEGMENT     BED HYD. COND.      BED THICKNESS     ELEV.-TOP OF BED     WIDTH OF STREAM     DEPTH OF STREAM    STREAM ROUGHNESS
    No.     UPPER     LOWER     UPPER     LOWER     UPPER     LOWER     UPPER     LOWER     UPPER     LOWER   CHANNEL      BANK

     1  3.000E-05 3.000E-05 3.000E+00 3.000E+00 1.095E+03 1.075E+03
     2  3.000E-05 3.000E-05 3.000E+00 3.000E+00 1.075E+03 1.050E+03 1.200E+01 1.200E+01                     3.000E-02
     3  3.000E-05 3.000E-05 2.000E+00 2.000E+00 1.075E+03 1.060E+03 1.000E+01 6.000E+00 2.000E+00 1.000E+00
     4  3.000E-05 3.000E-05 3.000E+00 3.000E+00 1.080E+03 1.060E+03 1.000E+01 1.000E+01                     3.000E-02
     5  3.000E-05 3.000E-05 3.000E+00 3.000E+00 1.060E+03 1.045E+03
     6  3.000E-05 3.000E-05 3.000E+00 3.000E+00 1.045E+03 1.025E+03 1.200E+01 1.200E+01                     3.000E-02
     7  6.000E-05 6.000E-05 3.000E+00 3.000E+00 1.040E+03 1.025E+03                                         2.500E-02 4.500E-02
     8  6.000E-05 6.000E-05 3.000E+00 3.000E+00 1.025E+03 9.900E+02                                         2.500E-02 4.500E-02

  EIGHT POINT CROSS-SECTION DATA FOR SEGMENTS WITH ICALC = 2
    X VALUES X VALUES START FROM LEFT SIDE LOOKING DOWNSTREAM

     SEGMENT NO.        X1        X2        X3        X4        X5        X6        X7        X8
            7      0.000E+00 1.000E+01 8.000E+01 1.000E+02 1.500E+02 1.700E+02 2.400E+02 2.500E+02
            8      0.000E+00 1.000E+01 8.000E+01 1.000E+02 1.500E+02 1.700E+02 2.400E+02 2.500E+02

    Z VALUES ARE RELATIVE TO STREAMBED ELEVATION

     SEGMENT NO.          Z1        Z2        Z3        Z4        Z5        Z6        Z7        Z8
            7      2.000E+01 1.300E+01 1.000E+01 2.000E+00 0.000E+00 1.000E+01 1.300E+01 2.000E+01
            8      2.500E+01 1.700E+01 1.300E+01 4.000E+00 0.000E+00 1.000E+01 1.600E+01 2.000E+01

 STREAMFLOW RELATION WITH DEPTH IS BASED ON EQUATION Q = CDPTH*(DEPTH)**FDPTH
 STREAMFLOW RELATION WITH WIDTH IS BASED ON EQUATION Q = AWDTH*(WIDTH)**BWDTH

 SEGMENT NO.      CDPTH     FDPTH    AWDTH     BWDTH

          5 3.000E-01 3.500E-01 3.800E+00 6.000E-01

 STREAMFLOW RELATION WITH DEPTH AND WIDTH IS BASED ON TABULATED VALUES

  SEGMENT NO.   STREAMFLOW       DEPTH       WIDTH

          1     5.0000E-01   2.5000E-01   3.0000E+00
          1     1.0000E+00   4.0000E-01   3.5000E+00
          1     2.0000E+00   5.5000E-01   4.2000E+00
          1     4.0000E+00   7.0000E-01   5.3000E+00
          1     7.0000E+00   8.0000E-01   7.0000E+00
          1     1.0000E+01   9.0000E-01   8.5000E+00
          1     2.0000E+01   1.1000E+00   1.2000E+01
          1     3.0000E+01   1.2500E+00   1.4000E+01
          1     5.0000E+01   1.4000E+00   1.7000E+01
          1     7.5000E+01   1.7000E+00   2.0000E+01
          1     1.0000E+02   1.8000E+00   2.2000E+01



TABULAR INFLOWS WERE READ FOR SEGMENT      1
FROM FILE UNIT NUMBER     55

          TIMES                    INFLOWS
         0.0000000000E+00     0.5000000000E+01
         0.8640000000E+05     0.2200000000E+02
         0.2760000000E+07     0.4200000000E+02
         0.5270000000E+07     0.7700000000E+02
         0.7950000000E+07     0.2800000000E+02
         0.1050000000E+08     0.9900000000E+02
         0.1320000000E+08     0.8300000000E+02
         0.1580000000E+08     0.7500000000E+02
         0.1850000000E+08     0.6100000000E+02
         0.2120000000E+08     0.4700000000E+02
         0.2380000000E+08     0.3500000000E+02
         0.2640000000E+08     0.2600000000E+02
         0.2900000000E+08     0.2300000000E+02
         0.3170000000E+08     0.1900000000E+02
         0.3440000000E+08     0.2100000000E+02
         0.3680000000E+08     0.9800000000E+02
         0.3950000000E+08     0.7500000000E+02
         0.4210000000E+08     0.6300000000E+02
         0.4480000000E+08     0.5800000000E+02
         0.4730000000E+08     0.5400000000E+02
         0.5000000000E+08     0.3700000000E+02
         0.5270000000E+08     0.2500000000E+02
         0.5530000000E+08     0.2200000000E+02
         0.5800000000E+08     0.2100000000E+02
         0.6060000000E+08     0.2000000000E+02
         0.6320000000E+08     0.1900000000E+02



            AREAL INFILTRATION RATE
 READING ON UNIT   19 WITH FORMAT: (10F4.0)            

            1           2           3           4           5           6           7           8           9          10
 ........................................................................................................................
   1   1.0000E-10  2.0000E-10   0.000       0.000       0.000       0.000       0.000       0.000       0.000       0.000    
   2   2.0000E-10  1.0000E-10  2.0000E-10   0.000       0.000      8.0000E-10  8.0000E-10  5.0000E-10   0.000       0.000    
   3    0.000      5.0000E-10  1.0000E-10  1.0000E-10  8.0000E-10  8.0000E-10  5.0000E-10  5.0000E-10   0.000       0.000    
   4   8.0000E-10  5.0000E-10  1.0000E-10  1.0000E-10  1.0000E-10  1.0000E-10  1.0000E-10  1.0000E-10  2.0000E-10   0.000    
   5   8.0000E-10  5.0000E-10  1.0000E-10  1.0000E-10  1.0000E-10  1.0000E-10  1.0000E-10  1.0000E-10  1.0000E-10  1.0000E-10
   6   8.0000E-10  5.0000E-10  5.0000E-10  2.0000E-10  2.0000E-10  1.0000E-10  1.0000E-10  1.0000E-10  1.0000E-10  5.0000E-10
   7   8.0000E-10  5.0000E-10  5.0000E-10  2.0000E-10  2.0000E-10  1.0000E-10  1.0000E-10  2.0000E-10  2.0000E-10   0.000    
   8    0.000      5.0000E-10  5.0000E-10  2.0000E-10  2.0000E-10  1.0000E-10  1.0000E-10  2.0000E-10  5.0000E-10   0.000    
   9    0.000      5.0000E-10  5.0000E-10  2.0000E-10  2.0000E-10  1.0000E-10  1.0000E-10  2.0000E-10  5.0000E-10   0.000    
  10    0.000      5.0000E-10  5.0000E-10  2.0000E-10  2.0000E-10  1.0000E-10  1.0000E-10  2.0000E-10  5.0000E-10  8.0000E-10
  11    0.000      1.0000E-10  1.0000E-10  1.0000E-10  1.0000E-10  1.0000E-10  1.0000E-10  2.0000E-10  5.0000E-10   0.000    
  12   1.0000E-10  1.0000E-10  1.0000E-10  1.0000E-10  1.0000E-10  1.0000E-10  1.0000E-10  1.0000E-10  2.0000E-10   0.000    
  13   1.0000E-10  1.0000E-10  2.0000E-10  2.0000E-10  2.0000E-10  2.0000E-10  2.0000E-10  1.0000E-10  1.0000E-10   0.000    
  14    0.000      2.0000E-10  5.0000E-10  5.0000E-10  5.0000E-10  5.0000E-10  5.0000E-10  2.0000E-10  1.0000E-10   0.000    
  15    0.000       0.000      8.0000E-10  8.0000E-10  8.0000E-10  8.0000E-10   0.000       0.000       0.000       0.000    

                  ET RATE =  1.000000E-08

      ET EXTINCTION DEPTH =  0.500000    

 EXTINCTION WATER CONTENT =  8.000000E-02

EXTINCTION WATER CONTENT FOR CELL AT ROW     1, COLUMN     1 IS LESS THAN RESIDUAL WATER CONTENT-- SETTING EXTINCTION WATER CONTENT EQUAL TO RESIDUAL WATER CONTENT

EXTINCTION WATER CONTENT FOR CELL AT ROW     1, COLUMN     2 IS LESS THAN RESIDUAL WATER CONTENT-- SETTING EXTINCTION WATER CONTENT EQUAL TO RESIDUAL WATER CONTENT

EXTINCTION WATER CONTENT FOR CELL AT ROW     2, COLUMN     1 IS LESS THAN RESIDUAL WATER CONTENT-- SETTING EXTINCTION WATER CONTENT EQUAL TO RESIDUAL WATER CONTENT

EXTINCTION WATER CONTENT FOR CELL AT ROW     2, COLUMN     2 IS LESS THAN RESIDUAL WATER CONTENT-- SETTING EXTINCTION WATER CONTENT EQUAL TO RESIDUAL WATER CONTENT

EXTINCTION WATER CONTENT FOR CELL AT ROW     2, COLUMN     3 IS LESS THAN RESIDUAL WATER CONTENT-- SETTING EXTINCTION WATER CONTENT EQUAL TO RESIDUAL WATER CONTENT

EXTINCTION WATER CONTENT FOR CELL AT ROW     2, COLUMN     6 IS LESS THAN RESIDUAL WATER CONTENT-- SETTING EXTINCTION WATER CONTENT EQUAL TO RESIDUAL WATER CONTENT

EXTINCTION WATER CONTENT FOR CELL AT ROW     2, COLUMN     7 IS LESS THAN RESIDUAL WATER CONTENT-- SETTING EXTINCTION WATER CONTENT EQUAL TO RESIDUAL WATER CONTENT

EXTINCTION WATER CONTENT FOR CELL AT ROW     2, COLUMN     8 IS LESS THAN RESIDUAL WATER CONTENT-- SETTING EXTINCTION WATER CONTENT EQUAL TO RESIDUAL WATER CONTENT

EXTINCTION WATER CONTENT FOR CELL AT ROW     3, COLUMN     2 IS LESS THAN RESIDUAL WATER CONTENT-- SETTING EXTINCTION WATER CONTENT EQUAL TO RESIDUAL WATER CONTENT

EXTINCTION WATER CONTENT FOR CELL AT ROW     3, COLUMN     3 IS LESS THAN RESIDUAL WATER CONTENT-- SETTING EXTINCTION WATER CONTENT EQUAL TO RESIDUAL WATER CONTENT

EXTINCTION WATER CONTENT FOR CELL AT ROW     3, COLUMN     4 IS LESS THAN RESIDUAL WATER CONTENT-- SETTING EXTINCTION WATER CONTENT EQUAL TO RESIDUAL WATER CONTENT

EXTINCTION WATER CONTENT FOR CELL AT ROW     3, COLUMN     5 IS LESS THAN RESIDUAL WATER CONTENT-- SETTING EXTINCTION WATER CONTENT EQUAL TO RESIDUAL WATER CONTENT

EXTINCTION WATER CONTENT FOR CELL AT ROW     3, COLUMN     6 IS LESS THAN RESIDUAL WATER CONTENT-- SETTING EXTINCTION WATER CONTENT EQUAL TO RESIDUAL WATER CONTENT

EXTINCTION WATER CONTENT FOR CELL AT ROW     3, COLUMN     7 IS LESS THAN RESIDUAL WATER CONTENT-- SETTING EXTINCTION WATER CONTENT EQUAL TO RESIDUAL WATER CONTENT

EXTINCTION WATER CONTENT FOR CELL AT ROW     3, COLUMN     8 IS LESS THAN RESIDUAL WATER CONTENT-- SETTING EXTINCTION WATER CONTENT EQUAL TO RESIDUAL WATER CONTENT

EXTINCTION WATER CONTENT FOR CELL AT ROW     4, COLUMN     1 IS LESS THAN RESIDUAL WATER CONTENT-- SETTING EXTINCTION WATER CONTENT EQUAL TO RESIDUAL WATER CONTENT

EXTINCTION WATER CONTENT FOR CELL AT ROW     4, COLUMN     2 IS LESS THAN RESIDUAL WATER CONTENT-- SETTING EXTINCTION WATER CONTENT EQUAL TO RESIDUAL WATER CONTENT

EXTINCTION WATER CONTENT FOR CELL AT ROW     4, COLUMN     3 IS LESS THAN RESIDUAL WATER CONTENT-- SETTING EXTINCTION WATER CONTENT EQUAL TO RESIDUAL WATER CONTENT

EXTINCTION WATER CONTENT FOR CELL AT ROW     4, COLUMN     4 IS LESS THAN RESIDUAL WATER CONTENT-- SETTING EXTINCTION WATER CONTENT EQUAL TO RESIDUAL WATER CONTENT

EXTINCTION WATER CONTENT FOR CELL AT ROW     4, COLUMN     5 IS LESS THAN RESIDUAL WATER CONTENT-- SETTING EXTINCTION WATER CONTENT EQUAL TO RESIDUAL WATER CONTENT

EXTINCTION WATER CONTENT FOR CELL AT ROW     4, COLUMN     6 IS LESS THAN RESIDUAL WATER CONTENT-- SETTING EXTINCTION WATER CONTENT EQUAL TO RESIDUAL WATER CONTENT

EXTINCTION WATER CONTENT FOR CELL AT ROW     4, COLUMN     7 IS LESS THAN RESIDUAL WATER CONTENT-- SETTING EXTINCTION WATER CONTENT EQUAL TO RESIDUAL WATER CONTENT

EXTINCTION WATER CONTENT FOR CELL AT ROW     4, COLUMN     8 IS LESS THAN RESIDUAL WATER CONTENT-- SETTING EXTINCTION WATER CONTENT EQUAL TO RESIDUAL WATER CONTENT

EXTINCTION WATER CONTENT FOR CELL AT ROW     4, COLUMN     9 IS LESS THAN RESIDUAL WATER CONTENT-- SETTING EXTINCTION WATER CONTENT EQUAL TO RESIDUAL WATER CONTENT

EXTINCTION WATER CONTENT FOR CELL AT ROW     5, COLUMN     1 IS LESS THAN RESIDUAL WATER CONTENT-- SETTING EXTINCTION WATER CONTENT EQUAL TO RESIDUAL WATER CONTENT

EXTINCTION WATER CONTENT FOR CELL AT ROW     5, COLUMN     2 IS LESS THAN RESIDUAL WATER CONTENT-- SETTING EXTINCTION WATER CONTENT EQUAL TO RESIDUAL WATER CONTENT

EXTINCTION WATER CONTENT FOR CELL AT ROW     5, COLUMN     3 IS LESS THAN RESIDUAL WATER CONTENT-- SETTING EXTINCTION WATER CONTENT EQUAL TO RESIDUAL WATER CONTENT

EXTINCTION WATER CONTENT FOR CELL AT ROW     5, COLUMN     4 IS LESS THAN RESIDUAL WATER CONTENT-- SETTING EXTINCTION WATER CONTENT EQUAL TO RESIDUAL WATER CONTENT

EXTINCTION WATER CONTENT FOR CELL AT ROW     5, COLUMN     5 IS LESS THAN RESIDUAL WATER CONTENT-- SETTING EXTINCTION WATER CONTENT EQUAL TO RESIDUAL WATER CONTENT

EXTINCTION WATER CONTENT FOR CELL AT ROW     5, COLUMN     6 IS LESS THAN RESIDUAL WATER CONTENT-- SETTING EXTINCTION WATER CONTENT EQUAL TO RESIDUAL WATER CONTENT

EXTINCTION WATER CONTENT FOR CELL AT ROW     5, COLUMN     7 IS LESS THAN RESIDUAL WATER CONTENT-- SETTING EXTINCTION WATER CONTENT EQUAL TO RESIDUAL WATER CONTENT

EXTINCTION WATER CONTENT FOR CELL AT ROW     5, COLUMN     8 IS LESS THAN RESIDUAL WATER CONTENT-- SETTING EXTINCTION WATER CONTENT EQUAL TO RESIDUAL WATER CONTENT

EXTINCTION WATER CONTENT FOR CELL AT ROW     5, COLUMN     9 IS LESS THAN RESIDUAL WATER CONTENT-- SETTING EXTINCTION WATER CONTENT EQUAL TO RESIDUAL WATER CONTENT

EXTINCTION WATER CONTENT FOR CELL AT ROW     5, COLUMN    10 IS LESS THAN RESIDUAL WATER CONTENT-- SETTING EXTINCTION WATER CONTENT EQUAL TO RESIDUAL WATER CONTENT

EXTINCTION WATER CONTENT FOR CELL AT ROW     6, COLUMN     1 IS LESS THAN RESIDUAL WATER CONTENT-- SETTING EXTINCTION WATER CONTENT EQUAL TO RESIDUAL WATER CONTENT

EXTINCTION WATER CONTENT FOR CELL AT ROW     6, COLUMN     2 IS LESS THAN RESIDUAL WATER CONTENT-- SETTING EXTINCTION WATER CONTENT EQUAL TO RESIDUAL WATER CONTENT

EXTINCTION WATER CONTENT FOR CELL AT ROW     6, COLUMN     3 IS LESS THAN RESIDUAL WATER CONTENT-- SETTING EXTINCTION WATER CONTENT EQUAL TO RESIDUAL WATER CONTENT

EXTINCTION WATER CONTENT FOR CELL AT ROW     6, COLUMN     4 IS LESS THAN RESIDUAL WATER CONTENT-- SETTING EXTINCTION WATER CONTENT EQUAL TO RESIDUAL WATER CONTENT

EXTINCTION WATER CONTENT FOR CELL AT ROW     6, COLUMN     5 IS LESS THAN RESIDUAL WATER CONTENT-- SETTING EXTINCTION WATER CONTENT EQUAL TO RESIDUAL WATER CONTENT

EXTINCTION WATER CONTENT FOR CELL AT ROW     6, COLUMN     6 IS LESS THAN RESIDUAL WATER CONTENT-- SETTING EXTINCTION WATER CONTENT EQUAL TO RESIDUAL WATER CONTENT

EXTINCTION WATER CONTENT FOR CELL AT ROW     6, COLUMN     7 IS LESS THAN RESIDUAL WATER CONTENT-- SETTING EXTINCTION WATER CONTENT EQUAL TO RESIDUAL WATER CONTENT

EXTINCTION WATER CONTENT FOR CELL AT ROW     6, COLUMN     8 IS LESS THAN RESIDUAL WATER CONTENT-- SETTING EXTINCTION WATER CONTENT EQUAL TO RESIDUAL WATER CONTENT

EXTINCTION WATER CONTENT FOR CELL AT ROW     6, COLUMN     9 IS LESS THAN RESIDUAL WATER CONTENT-- SETTING EXTINCTION WATER CONTENT EQUAL TO RESIDUAL WATER CONTENT

EXTINCTION WATER CONTENT FOR CELL AT ROW     6, COLUMN    10 IS LESS THAN RESIDUAL WATER CONTENT-- SETTING EXTINCTION WATER CONTENT EQUAL TO RESIDUAL WATER CONTENT

EXTINCTION WATER CONTENT FOR CELL AT ROW     7, COLUMN     1 IS LESS THAN RESIDUAL WATER CONTENT-- SETTING EXTINCTION WATER CONTENT EQUAL TO RESIDUAL WATER CONTENT

EXTINCTION WATER CONTENT FOR CELL AT ROW     7, COLUMN     2 IS LESS THAN RESIDUAL WATER CONTENT-- SETTING EXTINCTION WATER CONTENT EQUAL TO RESIDUAL WATER CONTENT

EXTINCTION WATER CONTENT FOR CELL AT ROW     7, COLUMN     3 IS LESS THAN RESIDUAL WATER CONTENT-- SETTING EXTINCTION WATER CONTENT EQUAL TO RESIDUAL WATER CONTENT

EXTINCTION WATER CONTENT FOR CELL AT ROW     7, COLUMN     4 IS LESS THAN RESIDUAL WATER CONTENT-- SETTING EXTINCTION WATER CONTENT EQUAL TO RESIDUAL WATER CONTENT

EXTINCTION WATER CONTENT FOR CELL AT ROW     7, COLUMN     5 IS LESS THAN RESIDUAL WATER CONTENT-- SETTING EXTINCTION WATER CONTENT EQUAL TO RESIDUAL WATER CONTENT

EXTINCTION WATER CONTENT FOR CELL AT ROW     7, COLUMN     6 IS LESS THAN RESIDUAL WATER CONTENT-- SETTING EXTINCTION WATER CONTENT EQUAL TO RESIDUAL WATER CONTENT

EXTINCTION WATER CONTENT FOR CELL AT ROW     7, COLUMN     7 IS LESS THAN RESIDUAL WATER CONTENT-- SETTING EXTINCTION WATER CONTENT EQUAL TO RESIDUAL WATER CONTENT

EXTINCTION WATER CONTENT FOR CELL AT ROW     7, COLUMN     8 IS LESS THAN RESIDUAL WATER CONTENT-- SETTING EXTINCTION WATER CONTENT EQUAL TO RESIDUAL WATER CONTENT

EXTINCTION WATER CONTENT FOR CELL AT ROW     7, COLUMN     9 IS LESS THAN RESIDUAL WATER CONTENT-- SETTING EXTINCTION WATER CONTENT EQUAL TO RESIDUAL WATER CONTENT

EXTINCTION WATER CONTENT FOR CELL AT ROW     8, COLUMN     2 IS LESS THAN RESIDUAL WATER CONTENT-- SETTING EXTINCTION WATER CONTENT EQUAL TO RESIDUAL WATER CONTENT

EXTINCTION WATER CONTENT FOR CELL AT ROW     8, COLUMN     3 IS LESS THAN RESIDUAL WATER CONTENT-- SETTING EXTINCTION WATER CONTENT EQUAL TO RESIDUAL WATER CONTENT

EXTINCTION WATER CONTENT FOR CELL AT ROW     8, COLUMN     4 IS LESS THAN RESIDUAL WATER CONTENT-- SETTING EXTINCTION WATER CONTENT EQUAL TO RESIDUAL WATER CONTENT

EXTINCTION WATER CONTENT FOR CELL AT ROW     8, COLUMN     5 IS LESS THAN RESIDUAL WATER CONTENT-- SETTING EXTINCTION WATER CONTENT EQUAL TO RESIDUAL WATER CONTENT

EXTINCTION WATER CONTENT FOR CELL AT ROW     8, COLUMN     6 IS LESS THAN RESIDUAL WATER CONTENT-- SETTING EXTINCTION WATER CONTENT EQUAL TO RESIDUAL WATER CONTENT

EXTINCTION WATER CONTENT FOR CELL AT ROW     8, COLUMN     7 IS LESS THAN RESIDUAL WATER CONTENT-- SETTING EXTINCTION WATER CONTENT EQUAL TO RESIDUAL WATER CONTENT

EXTINCTION WATER CONTENT FOR CELL AT ROW     8, COLUMN     8 IS LESS THAN RESIDUAL WATER CONTENT-- SETTING EXTINCTION WATER CONTENT EQUAL TO RESIDUAL WATER CONTENT

EXTINCTION WATER CONTENT FOR CELL AT ROW     8, COLUMN     9 IS LESS THAN RESIDUAL WATER CONTENT-- SETTING EXTINCTION WATER CONTENT EQUAL TO RESIDUAL WATER CONTENT

EXTINCTION WATER CONTENT FOR CELL AT ROW     9, COLUMN     2 IS LESS THAN RESIDUAL WATER CONTENT-- SETTING EXTINCTION WATER CONTENT EQUAL TO RESIDUAL WATER CONTENT

EXTINCTION WATER CONTENT FOR CELL AT ROW     9, COLUMN     3 IS LESS THAN RESIDUAL WATER CONTENT-- SETTING EXTINCTION WATER CONTENT EQUAL TO RESIDUAL WATER CONTENT

EXTINCTION WATER CONTENT FOR CELL AT ROW     9, COLUMN     4 IS LESS THAN RESIDUAL WATER CONTENT-- SETTING EXTINCTION WATER CONTENT EQUAL TO RESIDUAL WATER CONTENT

EXTINCTION WATER CONTENT FOR CELL AT ROW     9, COLUMN     5 IS LESS THAN RESIDUAL WATER CONTENT-- SETTING EXTINCTION WATER CONTENT EQUAL TO RESIDUAL WATER CONTENT

EXTINCTION WATER CONTENT FOR CELL AT ROW     9, COLUMN     6 IS LESS THAN RESIDUAL WATER CONTENT-- SETTING EXTINCTION WATER CONTENT EQUAL TO RESIDUAL WATER CONTENT

EXTINCTION WATER CONTENT FOR CELL AT ROW     9, COLUMN     7 IS LESS THAN RESIDUAL WATER CONTENT-- SETTING EXTINCTION WATER CONTENT EQUAL TO RESIDUAL WATER CONTENT

EXTINCTION WATER CONTENT FOR CELL AT ROW     9, COLUMN     8 IS LESS THAN RESIDUAL WATER CONTENT-- SETTING EXTINCTION WATER CONTENT EQUAL TO RESIDUAL WATER CONTENT

EXTINCTION WATER CONTENT FOR CELL AT ROW     9, COLUMN     9 IS LESS THAN RESIDUAL WATER CONTENT-- SETTING EXTINCTION WATER CONTENT EQUAL TO RESIDUAL WATER CONTENT

EXTINCTION WATER CONTENT FOR CELL AT ROW    10, COLUMN     2 IS LESS THAN RESIDUAL WATER CONTENT-- SETTING EXTINCTION WATER CONTENT EQUAL TO RESIDUAL WATER CONTENT

EXTINCTION WATER CONTENT FOR CELL AT ROW    10, COLUMN     3 IS LESS THAN RESIDUAL WATER CONTENT-- SETTING EXTINCTION WATER CONTENT EQUAL TO RESIDUAL WATER CONTENT

EXTINCTION WATER CONTENT FOR CELL AT ROW    10, COLUMN     4 IS LESS THAN RESIDUAL WATER CONTENT-- SETTING EXTINCTION WATER CONTENT EQUAL TO RESIDUAL WATER CONTENT

EXTINCTION WATER CONTENT FOR CELL AT ROW    10, COLUMN     5 IS LESS THAN RESIDUAL WATER CONTENT-- SETTING EXTINCTION WATER CONTENT EQUAL TO RESIDUAL WATER CONTENT

EXTINCTION WATER CONTENT FOR CELL AT ROW    10, COLUMN     6 IS LESS THAN RESIDUAL WATER CONTENT-- SETTING EXTINCTION WATER CONTENT EQUAL TO RESIDUAL WATER CONTENT

EXTINCTION WATER CONTENT FOR CELL AT ROW    10, COLUMN     7 IS LESS THAN RESIDUAL WATER CONTENT-- SETTING EXTINCTION WATER CONTENT EQUAL TO RESIDUAL WATER CONTENT

EXTINCTION WATER CONTENT FOR CELL AT ROW    10, COLUMN     8 IS LESS THAN RESIDUAL WATER CONTENT-- SETTING EXTINCTION WATER CONTENT EQUAL TO RESIDUAL WATER CONTENT

EXTINCTION WATER CONTENT FOR CELL AT ROW    10, COLUMN     9 IS LESS THAN RESIDUAL WATER CONTENT-- SETTING EXTINCTION WATER CONTENT EQUAL TO RESIDUAL WATER CONTENT

EXTINCTION WATER CONTENT FOR CELL AT ROW    10, COLUMN    10 IS LESS THAN RESIDUAL WATER CONTENT-- SETTING EXTINCTION WATER CONTENT EQUAL TO RESIDUAL WATER CONTENT

EXTINCTION WATER CONTENT FOR CELL AT ROW    11, COLUMN     2 IS LESS THAN RESIDUAL WATER CONTENT-- SETTING EXTINCTION WATER CONTENT EQUAL TO RESIDUAL WATER CONTENT

EXTINCTION WATER CONTENT FOR CELL AT ROW    11, COLUMN     3 IS LESS THAN RESIDUAL WATER CONTENT-- SETTING EXTINCTION WATER CONTENT EQUAL TO RESIDUAL WATER CONTENT

EXTINCTION WATER CONTENT FOR CELL AT ROW    11, COLUMN     4 IS LESS THAN RESIDUAL WATER CONTENT-- SETTING EXTINCTION WATER CONTENT EQUAL TO RESIDUAL WATER CONTENT

EXTINCTION WATER CONTENT FOR CELL AT ROW    11, COLUMN     5 IS LESS THAN RESIDUAL WATER CONTENT-- SETTING EXTINCTION WATER CONTENT EQUAL TO RESIDUAL WATER CONTENT

EXTINCTION WATER CONTENT FOR CELL AT ROW    11, COLUMN     6 IS LESS THAN RESIDUAL WATER CONTENT-- SETTING EXTINCTION WATER CONTENT EQUAL TO RESIDUAL WATER CONTENT

EXTINCTION WATER CONTENT FOR CELL AT ROW    11, COLUMN     7 IS LESS THAN RESIDUAL WATER CONTENT-- SETTING EXTINCTION WATER CONTENT EQUAL TO RESIDUAL WATER CONTENT

EXTINCTION WATER CONTENT FOR CELL AT ROW    11, COLUMN     8 IS LESS THAN RESIDUAL WATER CONTENT-- SETTING EXTINCTION WATER CONTENT EQUAL TO RESIDUAL WATER CONTENT

EXTINCTION WATER CONTENT FOR CELL AT ROW    11, COLUMN     9 IS LESS THAN RESIDUAL WATER CONTENT-- SETTING EXTINCTION WATER CONTENT EQUAL TO RESIDUAL WATER CONTENT

EXTINCTION WATER CONTENT FOR CELL AT ROW    12, COLUMN     1 IS LESS THAN RESIDUAL WATER CONTENT-- SETTING EXTINCTION WATER CONTENT EQUAL TO RESIDUAL WATER CONTENT

EXTINCTION WATER CONTENT FOR CELL AT ROW    12, COLUMN     2 IS LESS THAN RESIDUAL WATER CONTENT-- SETTING EXTINCTION WATER CONTENT EQUAL TO RESIDUAL WATER CONTENT

EXTINCTION WATER CONTENT FOR CELL AT ROW    12, COLUMN     3 IS LESS THAN RESIDUAL WATER CONTENT-- SETTING EXTINCTION WATER CONTENT EQUAL TO RESIDUAL WATER CONTENT

EXTINCTION WATER CONTENT FOR CELL AT ROW    12, COLUMN     4 IS LESS THAN RESIDUAL WATER CONTENT-- SETTING EXTINCTION WATER CONTENT EQUAL TO RESIDUAL WATER CONTENT

EXTINCTION WATER CONTENT FOR CELL AT ROW    12, COLUMN     5 IS LESS THAN RESIDUAL WATER CONTENT-- SETTING EXTINCTION WATER CONTENT EQUAL TO RESIDUAL WATER CONTENT

EXTINCTION WATER CONTENT FOR CELL AT ROW    12, COLUMN     6 IS LESS THAN RESIDUAL WATER CONTENT-- SETTING EXTINCTION WATER CONTENT EQUAL TO RESIDUAL WATER CONTENT

EXTINCTION WATER CONTENT FOR CELL AT ROW    12, COLUMN     7 IS LESS THAN RESIDUAL WATER CONTENT-- SETTING EXTINCTION WATER CONTENT EQUAL TO RESIDUAL WATER CONTENT

EXTINCTION WATER CONTENT FOR CELL AT ROW    12, COLUMN     8 IS LESS THAN RESIDUAL WATER CONTENT-- SETTING EXTINCTION WATER CONTENT EQUAL TO RESIDUAL WATER CONTENT

EXTINCTION WATER CONTENT FOR CELL AT ROW    12, COLUMN     9 IS LESS THAN RESIDUAL WATER CONTENT-- SETTING EXTINCTION WATER CONTENT EQUAL TO RESIDUAL WATER CONTENT

EXTINCTION WATER CONTENT FOR CELL AT ROW    13, COLUMN     1 IS LESS THAN RESIDUAL WATER CONTENT-- SETTING EXTINCTION WATER CONTENT EQUAL TO RESIDUAL WATER CONTENT

EXTINCTION WATER CONTENT FOR CELL AT ROW    13, COLUMN     2 IS LESS THAN RESIDUAL WATER CONTENT-- SETTING EXTINCTION WATER CONTENT EQUAL TO RESIDUAL WATER CONTENT

EXTINCTION WATER CONTENT FOR CELL AT ROW    13, COLUMN     3 IS LESS THAN RESIDUAL WATER CONTENT-- SETTING EXTINCTION WATER CONTENT EQUAL TO RESIDUAL WATER CONTENT

EXTINCTION WATER CONTENT FOR CELL AT ROW    13, COLUMN     4 IS LESS THAN RESIDUAL WATER CONTENT-- SETTING EXTINCTION WATER CONTENT EQUAL TO RESIDUAL WATER CONTENT

EXTINCTION WATER CONTENT FOR CELL AT ROW    13, COLUMN     5 IS LESS THAN RESIDUAL WATER CONTENT-- SETTING EXTINCTION WATER CONTENT EQUAL TO RESIDUAL WATER CONTENT

EXTINCTION WATER CONTENT FOR CELL AT ROW    13, COLUMN     6 IS LESS THAN RESIDUAL WATER CONTENT-- SETTING EXTINCTION WATER CONTENT EQUAL TO RESIDUAL WATER CONTENT

EXTINCTION WATER CONTENT FOR CELL AT ROW    13, COLUMN     7 IS LESS THAN RESIDUAL WATER CONTENT-- SETTING EXTINCTION WATER CONTENT EQUAL TO RESIDUAL WATER CONTENT

EXTINCTION WATER CONTENT FOR CELL AT ROW    13, COLUMN     8 IS LESS THAN RESIDUAL WATER CONTENT-- SETTING EXTINCTION WATER CONTENT EQUAL TO RESIDUAL WATER CONTENT

EXTINCTION WATER CONTENT FOR CELL AT ROW    13, COLUMN     9 IS LESS THAN RESIDUAL WATER CONTENT-- SETTING EXTINCTION WATER CONTENT EQUAL TO RESIDUAL WATER CONTENT

EXTINCTION WATER CONTENT FOR CELL AT ROW    14, COLUMN     2 IS LESS THAN RESIDUAL WATER CONTENT-- SETTING EXTINCTION WATER CONTENT EQUAL TO RESIDUAL WATER CONTENT

EXTINCTION WATER CONTENT FOR CELL AT ROW    14, COLUMN     3 IS LESS THAN RESIDUAL WATER CONTENT-- SETTING EXTINCTION WATER CONTENT EQUAL TO RESIDUAL WATER CONTENT

EXTINCTION WATER CONTENT FOR CELL AT ROW    14, COLUMN     4 IS LESS THAN RESIDUAL WATER CONTENT-- SETTING EXTINCTION WATER CONTENT EQUAL TO RESIDUAL WATER CONTENT

EXTINCTION WATER CONTENT FOR CELL AT ROW    14, COLUMN     5 IS LESS THAN RESIDUAL WATER CONTENT-- SETTING EXTINCTION WATER CONTENT EQUAL TO RESIDUAL WATER CONTENT

EXTINCTION WATER CONTENT FOR CELL AT ROW    14, COLUMN     6 IS LESS THAN RESIDUAL WATER CONTENT-- SETTING EXTINCTION WATER CONTENT EQUAL TO RESIDUAL WATER CONTENT

EXTINCTION WATER CONTENT FOR CELL AT ROW    14, COLUMN     7 IS LESS THAN RESIDUAL WATER CONTENT-- SETTING EXTINCTION WATER CONTENT EQUAL TO RESIDUAL WATER CONTENT

EXTINCTION WATER CONTENT FOR CELL AT ROW    14, COLUMN     8 IS LESS THAN RESIDUAL WATER CONTENT-- SETTING EXTINCTION WATER CONTENT EQUAL TO RESIDUAL WATER CONTENT

EXTINCTION WATER CONTENT FOR CELL AT ROW    14, COLUMN     9 IS LESS THAN RESIDUAL WATER CONTENT-- SETTING EXTINCTION WATER CONTENT EQUAL TO RESIDUAL WATER CONTENT

EXTINCTION WATER CONTENT FOR CELL AT ROW    15, COLUMN     3 IS LESS THAN RESIDUAL WATER CONTENT-- SETTING EXTINCTION WATER CONTENT EQUAL TO RESIDUAL WATER CONTENT

EXTINCTION WATER CONTENT FOR CELL AT ROW    15, COLUMN     4 IS LESS THAN RESIDUAL WATER CONTENT-- SETTING EXTINCTION WATER CONTENT EQUAL TO RESIDUAL WATER CONTENT

EXTINCTION WATER CONTENT FOR CELL AT ROW    15, COLUMN     5 IS LESS THAN RESIDUAL WATER CONTENT-- SETTING EXTINCTION WATER CONTENT EQUAL TO RESIDUAL WATER CONTENT

EXTINCTION WATER CONTENT FOR CELL AT ROW    15, COLUMN     6 IS LESS THAN RESIDUAL WATER CONTENT-- SETTING EXTINCTION WATER CONTENT EQUAL TO RESIDUAL WATER CONTENT

       AIR ENTRY PRESSURE = -0.100000    

            ROOT PRESSURE =  -30.0000    

            ROOT ACTIVITY =   1.00000    
 # AG well list

 PROCESSING WELL LIST

 LAYER   ROW   COL   MAX STRESS RATE         
 --------------------------------------------
      1      1      6      4     -0.1000E+05
      2      1      6      5     -0.1000E+05
      3      1      7      4     -0.1000E+05
      4      1      7      5     -0.1000E+05
      5      1      8      4     -0.1000E+05
      6      1      8      5     -0.1000E+05

 FINISHED READING WELL LIST

      6 WELLS

 PROCESSING AG STRESS PERIOD DATA
 # AG stress period

 READING AG STRESS PERIOD DATA

 READING IRRIGATION WELL

 END PROCESSING AG STRESS PERIOD DATA OPTIONS
 
 SOLVING FOR HEAD 
                                                   Max.-Head-Change                         Max.-Flux-Residual
  Residual-Control   Outer-Iter.   Inner-Iter.     Column Row Layer    Maximum-Head-Change  Column Row Layer    Maximum-Flux-Residual          L2-NORM 
          0                 1           6             2    2     1      -0.2729307452E+02       3    3    1        -0.3343270791E+01      0.9349602253E+01
          0                 2           6             1    1     1      -0.3190965432E+02       1   13    1        -0.1265339357E+03      0.1266532512E+03
          0                 3           6             1    1     1      -0.1572491794E+01       6   13    1        -0.2190257909E+01      0.4309171012E+01
          0                 4           5             5   13     1      -0.1413305573E+00       5   13    1        -0.2948449754E+00      0.3673593673E+00
          0                 5           4             5   14     1       0.3029532417E-01       5   13    1         0.1459711475E-01      0.2406404321E-01
          0                 6           2             5   14     1      -0.1189222913E-02       5   13    1        -0.5824423081E-03      0.1630050421E-02
          0                 7           1             5   14     1       0.1319549578E-04       7   10    1         0.2182441563E-04      0.6315083061E-04

    ------------------------------------------------
       NWT REQUIRED            7 OUTER ITERATIONS 
       AND A TOTAL OF         30 INNER ITERATIONS.
    ------------------------------------------------

 OUTPUT CONTROL FOR STRESS PERIOD    1   TIME STEP    1
    PRINT BUDGET
    SAVE BUDGET
    SAVE HEAD FOR ALL LAYERS
 UBDSV2 SAVING "   CONSTANT HEAD" ON UNIT 102 AT TIME STEP 1, STRESS PERIOD 1
 UBDSV1 SAVING "FLOW RIGHT FACE " ON UNIT 102 AT TIME STEP 1, STRESS PERIOD 1
 UBDSV1 SAVING "FLOW FRONT FACE " ON UNIT 102 AT TIME STEP 1, STRESS PERIOD 1

  HEAD DEP BOUNDS   PERIOD    1   STEP     1
 BOUNDARY      1   LAYER   1   ROW    13   COL     1   RATE   -0.287309    
 BOUNDARY      2   LAYER   1   ROW    14   COL     9   RATE    0.285356    



 STREAM LISTING     PERIOD      1   STEP        1

 LAYER ROW COL. STREAM  RCH.  FLOW INTO     FLOW TO   FLOW OUT OF   OVRLND.     DIRECT     STREAM       STREAM     STREAM     STREAM   STREAMBED  STREAMBED
                SEG.NO.  NO.  STRM. RCH.    AQUIFER    STRM. RCH.    RUNOFF     PRECIP       ET          HEAD       DEPTH      WIDTH   CONDCTNC.   GRADIENT

   1    1    1     1     1    5.0000E+00  9.9080E-02   4.9009E+00  0.000E+00  0.000E+00  0.000E+00  1.09378E+03  7.365E-01  5.893E+00  2.652E-02  1.246E+00
   1    2    2     1     2    4.9009E+00  1.5199E-01   4.7489E+00  0.000E+00  0.000E+00  0.000E+00  1.08879E+03  7.320E-01  5.818E+00  4.072E-02  1.244E+00
   1    3    3     1     3    4.7489E+00  1.2820E-01   4.6207E+00  0.000E+00  0.000E+00  0.000E+00  1.08315E+03  7.269E-01  5.733E+00  3.440E-02  1.242E+00
   1    3    4     1     4    4.6207E+00  1.1689E-01   4.5038E+00  0.000E+00  0.000E+00  0.000E+00  1.07813E+03  7.223E-01  5.658E+00  3.140E-02  1.241E+00
   1    4    5     2     1    2.5038E+00  2.5694E-01   2.2469E+00  0.000E+00  0.000E+00  0.000E+00  1.07223E+03  2.942E-01  1.200E+01  7.800E-02  1.098E+00
   1    5    6     2     2    2.2469E+00  1.9662E-01   2.0503E+00  0.000E+00  0.000E+00  0.000E+00  1.06679E+03  2.770E-01  1.200E+01  6.000E-02  1.092E+00
   1    6    6     2     3    2.0503E+00  1.9569E-01   1.8546E+00  0.000E+00  0.000E+00  0.000E+00  1.06205E+03  2.615E-01  1.200E+01  6.000E-02  1.087E+00
   1    7    6     2     4    1.8546E+00  1.9473E-01   1.6599E+00  0.000E+00  0.000E+00  0.000E+00  1.05732E+03  2.455E-01  1.200E+01  6.000E-02  1.082E+00
   1    8    6     2     5    1.6599E+00  1.9373E-01   1.4661E+00  0.000E+00  0.000E+00  0.000E+00  1.05259E+03  2.288E-01  1.200E+01  6.000E-02  1.076E+00
   1    3    5     3     1    2.0000E+00  2.8252E-01   1.7175E+00  0.000E+00  0.000E+00  0.000E+00  1.07555E+03  1.909E+00  9.636E+00  7.227E-02  1.955E+00
   1    3    6     3     2    1.7175E+00  2.4905E-01   1.4684E+00  0.000E+00  0.000E+00  0.000E+00  1.07264E+03  1.727E+00  8.909E+00  6.682E-02  1.864E+00
   1    3    7     3     3    1.4684E+00  1.9718E-01   1.2712E+00  0.000E+00  0.000E+00  0.000E+00  1.06987E+03  1.555E+00  8.218E+00  5.547E-02  1.777E+00
   1    4    8     3     4    1.2712E+00  2.2567E-01   1.0456E+00  0.000E+00  0.000E+00  0.000E+00  1.06682E+03  1.364E+00  7.455E+00  6.709E-02  1.682E+00
   1    5    8     3     5    1.0456E+00  1.5790E-01   8.8768E-01  0.000E+00  0.000E+00  0.000E+00  1.06362E+03  1.164E+00  6.655E+00  4.991E-02  1.582E+00
   1    6    8     3     6    8.8768E-01  5.5980E-02   8.3170E-01  0.000E+00  0.000E+00  0.000E+00  1.06158E+03  1.036E+00  6.145E+00  1.844E-02  1.518E+00
   1    5   10     4     1    1.0000E+01  9.0919E-02   9.9091E+00  0.000E+00  0.000E+00  0.000E+00  1.07836E+03  6.368E-01  1.000E+01  2.500E-02  1.212E+00
   1    5    9     4     2    9.9091E+00  1.8158E-01   9.7275E+00  0.000E+00  0.000E+00  0.000E+00  1.07154E+03  6.315E-01  1.000E+01  5.000E-02  1.211E+00
   1    6    8     4     3    9.7275E+00  1.2689E-01   9.6006E+00  0.000E+00  0.000E+00  0.000E+00  1.06381E+03  6.256E-01  1.000E+01  3.500E-02  1.209E+00
   1    6    8     5     1    1.0432E+01  2.2686E-01   1.0205E+01  0.000E+00  0.000E+00  0.000E+00  1.05868E+03  6.790E-01  1.542E+01  6.166E-02  1.226E+00
   1    7    7     5     2    1.0205E+01  2.7894E-01   9.9265E+00  0.000E+00  0.000E+00  0.000E+00  1.05417E+03  6.732E-01  1.519E+01  7.594E-02  1.224E+00
   1    8    7     5     3    9.9265E+00  1.9221E-01   9.7343E+00  0.000E+00  0.000E+00  0.000E+00  1.04992E+03  6.676E-01  1.497E+01  5.241E-02  1.223E+00
   1    8    6     5     4    9.7343E+00  1.3577E-01   9.5985E+00  0.000E+00  0.000E+00  0.000E+00  1.04691E+03  6.637E-01  1.482E+01  3.706E-02  1.221E+00
   1    9    6     6     1    1.1065E+01  2.2465E-01   1.0840E+01  0.000E+00  0.000E+00  0.000E+00  1.04347E+03  7.442E-01  1.200E+01  6.000E-02  1.248E+00
   1   10    7     6     2    1.0840E+01  2.2410E-01   1.0616E+01  0.000E+00  0.000E+00  0.000E+00  1.03892E+03  7.350E-01  1.200E+01  6.000E-02  1.245E+00
   1   11    7     6     3    1.0616E+01  2.2354E-01   1.0392E+01  0.000E+00  0.000E+00  0.000E+00  1.03436E+03  7.257E-01  1.200E+01  6.000E-02  1.242E+00
   1   12    7     6     4    1.0392E+01  2.2299E-01   1.0169E+01  0.000E+00  0.000E+00  0.000E+00  1.02981E+03  7.165E-01  1.200E+01  6.000E-02  1.239E+00
   1   13    7     6     5    1.0169E+01 -1.0974E-01   1.0279E+01  0.000E+00  0.000E+00  0.000E+00  1.02662E+03  7.141E-01  1.200E+01  2.400E-01 -1.524E-01
   1   14    9     7     1    1.5000E+02  1.3299E+00   1.4867E+02  0.000E+00  0.000E+00  0.000E+00  1.03987E+03  2.288E+00  5.529E+01  5.593E-01  7.926E-01
   1   13    8     7     2    1.4867E+02  1.8245E+00   1.4685E+02  0.000E+00  0.000E+00  0.000E+00  1.03478E+03  2.279E+00  5.526E+01  6.148E-01  9.892E-01
   1   13    7     7     3    1.4685E+02  1.4573E+00   1.4539E+02  0.000E+00  0.000E+00  0.000E+00  1.02969E+03  2.271E+00  5.522E+01  5.585E-01  8.698E-01
   1   13    6     8     1    1.5567E+02  8.1890E-01   1.5485E+02  0.000E+00  0.000E+00  0.000E+00  1.02473E+03  2.853E+00  4.138E+01  4.216E-01  6.474E-01
   1   13    5     8     2    1.5485E+02  9.0639E-02   1.5476E+02  0.000E+00  0.000E+00  0.000E+00  1.01848E+03  2.850E+00  4.133E+01  4.212E-01  7.174E-02
   1   13    4     8     3    1.5476E+02 -2.7168E+00   1.5747E+02  0.000E+00  0.000E+00  0.000E+00  1.01223E+03  2.859E+00  4.146E+01  4.225E+00 -2.143E-01
   1   13    3     8     4    1.5747E+02 -3.7756E+00   1.6125E+02  0.000E+00  0.000E+00  0.000E+00  1.00601E+03  2.882E+00  4.178E+01  4.258E+00 -2.956E-01
   1   13    2     8     5    1.6125E+02 -2.6098E+00   1.6386E+02  0.000E+00  0.000E+00  0.000E+00  9.99778E+02  2.903E+00  4.209E+01  4.290E+00 -2.028E-01
   1   13    1     8     6    1.6386E+02 -1.9855E+00   1.6585E+02  0.000E+00  0.000E+00  0.000E+00  9.94793E+02  2.918E+00  4.232E+01  2.587E+00 -2.558E-01



 UBDSV3 SAVING "           GW ET" ON UNIT  61 AT TIME STEP 1, STRESS PERIOD 1
 UBDSV3 SAVING "    UZF RECHARGE" ON UNIT  61 AT TIME STEP 1, STRESS PERIOD 1
 UBDSV3 SAVING " SURFACE LEAKAGE" ON UNIT  61 AT TIME STEP 1, STRESS PERIOD 1
 UBDSV3 SAVING "       HORT+DUNN" ON UNIT  61 AT TIME STEP 1, STRESS PERIOD 1
 UBDSV3 SAVING "  STORAGE CHANGE" ON UNIT  61 AT TIME STEP 1, STRESS PERIOD 1


UNSATURATED ZONE PACKAGE VOLUMETRIC BUDGET FOR  TIME STEP     1 STRESS PERIOD    1
  ------------------------------------------------------------------------------



     CUMULATIVE VOLUMES      L**3       RATES FOR THIS TIME STEP      L**3/T
     ------------------                 ------------------------

           IN:                                      IN:
           ---                                      ---
        INFILTRATION =       73224.0000          INFILTRATION =           0.8475

          OUT:                                     OUT:
          ----                                     ----
              UZF ET =       0.0000E+00                UZF ET =       0.0000E+00
        UZF RECHARGE =       73224.0000          UZF RECHARGE =           0.8475

            IN - OUT =       0.0000E+00              IN - OUT =       0.0000E+00

          STORAGE:                                 STORAGE:
          --------                                 --------
      STORAGE CHANGE =       0.0000E+00        STORAGE CHANGE =       0.0000E+00

 PERCENT DISCREPANCY IS DIFFERENCE BETWEEN IN-OUT MINUS CHANGE IN STORAGE
 DIVIDED BY THE AVERAGE OF IN AND OUT TIMES 100

 PERCENT DISCREPANCY =           0.00     PERCENT DISCREPANCY =           0.00






 

        AG WELLS          PERIOD    1   STEP   1
 AG WELL      1   LAYER   1   ROW     6   COL     4   RATE     0.00000    
 AG WELL      2   LAYER   1   ROW     6   COL     5   RATE     0.00000    
 AG WELL      3   LAYER   1   ROW     7   COL     4   RATE     0.00000    
 AG WELL      4   LAYER   1   ROW     7   COL     5   RATE     0.00000    
 AG WELL      5   LAYER   1   ROW     8   COL     4   RATE     0.00000    
 AG WELL      6   LAYER   1   ROW     8   COL     5   RATE     0.00000    
 
 

        GW IRRIGATION     PERIOD    1   STEP   1
 
1
  VOLUMETRIC BUDGET FOR AGRICULTURAL FIELDS AT  END OF TIME STEP    1, STRESS PERIOD   1
  ------------------------------------------------------------------------------

     CUMULATIVE VOLUMES      L**3       RATES FOR THIS TIME STEP      L**3/T
     ------------------                 ------------------------

           IN:                                      IN:
           ---                                      ---
           AG WELLS      =           0.0000             AG WELLS      =           0.0000
      DIVERSION SEGMENTS =           0.0000        DIVERSION SEGMENTS =           0.0000
           GW IRRIGATION =           0.0000             GW IRRIGATION =           0.0000
           SW IRRIGATION =           0.0000             SW IRRIGATION =           0.0000
        SYSTEM LOSSES GW =           0.0000          SYSTEM LOSSES GW =           0.0000
        SYSTEM LOSSES SW =           0.0000          SYSTEM LOSSES SW =           0.0000

                TOTAL IN =           0.0000                  TOTAL IN =           0.0000

          OUT:                                     OUT:
          ----                                     ----
           AG WELLS      =           0.0000             AG WELLS      =           0.0000
      DIVERSION SEGMENTS =           0.0000        DIVERSION SEGMENTS =           0.0000
           GW IRRIGATION =           0.0000             GW IRRIGATION =           0.0000
           SW IRRIGATION =           0.0000             SW IRRIGATION =           0.0000
        SYSTEM LOSSES GW =           0.0000          SYSTEM LOSSES GW =           0.0000
        SYSTEM LOSSES SW =           0.0000          SYSTEM LOSSES SW =           0.0000

               TOTAL OUT =           0.0000                 TOTAL OUT =           0.0000

                IN - OUT =           0.0000                  IN - OUT =           0.0000

     PERCENT DISCREPANCY =           0.00         PERCENT DISCREPANCY =           0.00




 HEAD WILL BE SAVED ON UNIT   62 AT END OF TIME STEP    1, STRESS PERIOD    1
1
  VOLUMETRIC BUDGET FOR ENTIRE MODEL AT END OF TIME STEP    1, STRESS PERIOD   1
  ------------------------------------------------------------------------------

     CUMULATIVE VOLUMES      L**3       RATES FOR THIS TIME STEP      L**3/T
     ------------------                 ------------------------

           IN:                                      IN:
           ---                                      ---
             STORAGE     =           0.0000               STORAGE     =           0.0000
       CONSTANT HEAD     =           0.0000         CONSTANT HEAD     =           0.0000
     HEAD DEP BOUNDS     =       24654.7383       HEAD DEP BOUNDS     =           0.2854
      STREAM LEAKAGE     =      894399.3125        STREAM LEAKAGE     =          10.3518
        UZF RECHARGE     =       73223.9531          UZF RECHARGE     =           0.8475
               GW ET     =           0.0000                 GW ET     =           0.0000
     SURFACE LEAKAGE     =           0.0000       SURFACE LEAKAGE     =           0.0000
           AG WELLS      =           0.0000             AG WELLS      =           0.0000

                TOTAL IN =      992278.0000                  TOTAL IN =          11.4847

          OUT:                                     OUT:
          ----                                     ----
             STORAGE     =           0.0000               STORAGE     =           0.0000
       CONSTANT HEAD     =           0.0000         CONSTANT HEAD     =           0.0000
     HEAD DEP BOUNDS     =       24823.4590       HEAD DEP BOUNDS     =           0.2873
      STREAM LEAKAGE     =      967454.4375        STREAM LEAKAGE     =          11.1974
        UZF RECHARGE     =           0.0000          UZF RECHARGE     =           0.0000
               GW ET     =           0.0000                 GW ET     =           0.0000
     SURFACE LEAKAGE     =           0.0000       SURFACE LEAKAGE     =           0.0000
           AG WELLS      =           0.0000             AG WELLS      =           0.0000

               TOTAL OUT =      992277.8750                 TOTAL OUT =          11.4847

                IN - OUT =           0.1250                  IN - OUT =       9.5367E-07

     PERCENT DISCREPANCY =           0.00         PERCENT DISCREPANCY =           0.00






         TIME SUMMARY AT END OF TIME STEP    1 IN STRESS PERIOD    1
                    SECONDS     MINUTES      HOURS       DAYS        YEARS
                    -----------------------------------------------------------
   TIME STEP LENGTH  86400.      1440.0      24.000      1.0000     2.73785E-03
 STRESS PERIOD TIME  86400.      1440.0      24.000      1.0000     2.73785E-03
         TOTAL TIME  86400.      1440.0      24.000      1.0000     2.73785E-03
1
1
                            STRESS PERIOD NO.    2, LENGTH =   2630000.    
                            -----------------------------------------------

                              NUMBER OF TIME STEPS =    30

                               MULTIPLIER FOR DELT =     1.000

                            INITIAL TIME STEP SIZE =   87666.66    

 REUSING NON-PARAMETER GHB CELLS FROM LAST STRESS PERIOD

      2 GHB CELLS

 REUSING STREAM SEGMENT DATA FROM LAST STRESS PERIOD



            AREAL INFILTRATION RATE
 READING ON UNIT   19 WITH FORMAT: (FREE)              

            1           2           3           4           5           6           7           8           9          10
 ........................................................................................................................
   1   1.0000E-10  2.0000E-10   0.000       0.000       0.000       0.000       0.000       0.000       0.000       0.000    
   2   2.0000E-10  1.0000E-10  2.0000E-10   0.000       0.000      8.0000E-10  8.0000E-10  5.0000E-10   0.000       0.000    
   3    0.000      5.0000E-10  1.0000E-10  1.0000E-10  8.0000E-10  8.0000E-10  5.0000E-10  5.0000E-10   0.000       0.000    
   4   8.0000E-10  5.0000E-10  1.0000E-10  1.0000E-10  1.0000E-10  1.0000E-10  1.0000E-10  1.0000E-10  2.0000E-10   0.000    
   5   8.0000E-10  5.0000E-10  1.0000E-10  1.0000E-10  1.0000E-10  1.0000E-10  1.0000E-10  1.0000E-10  1.0000E-10  1.0000E-10
   6   8.0000E-10  5.0000E-10  5.0000E-10  2.0000E-10  2.0000E-10  1.0000E-10  1.0000E-10  1.0000E-10  1.0000E-10  5.0000E-10
   7   8.0000E-10  5.0000E-10  5.0000E-10  2.0000E-10  2.0000E-10  1.0000E-10  1.0000E-10  2.0000E-10  2.0000E-10   0.000    
   8    0.000      5.0000E-10  5.0000E-10  2.0000E-10  2.0000E-10  1.0000E-10  1.0000E-10  2.0000E-10  5.0000E-10   0.000    
   9    0.000      5.0000E-10  5.0000E-10  2.0000E-10  2.0000E-10  1.0000E-10  1.0000E-10  2.0000E-10  5.0000E-10   0.000    
  10    0.000      5.0000E-10  5.0000E-10  2.0000E-10  2.0000E-10  1.0000E-10  1.0000E-10  2.0000E-10  5.0000E-10  8.0000E-10
  11    0.000      1.0000E-10  1.0000E-10  1.0000E-10  1.0000E-10  1.0000E-10  1.0000E-10  2.0000E-10  5.0000E-10   0.000    
  12   1.0000E-10  1.0000E-10  1.0000E-10  1.0000E-10  1.0000E-10  1.0000E-10  1.0000E-10  1.0000E-10  2.0000E-10   0.000    
  13   1.0000E-10  1.0000E-10  2.0000E-10  2.0000E-10  2.0000E-10  2.0000E-10  2.0000E-10  1.0000E-10  1.0000E-10   0.000    
  14    0.000      2.0000E-10  5.0000E-10  5.0000E-10  5.0000E-10  5.0000E-10  5.0000E-10  2.0000E-10  1.0000E-10   0.000    
  15    0.000       0.000      8.0000E-10  8.0000E-10  8.0000E-10  8.0000E-10   0.000       0.000       0.000       0.000    

                  ET RATE =  5.000000E-10

 USING ET EXTINCTION DEPTH FROM PREVIOUS STRESS PERIOD. CURRENT PERIOD IS:       2

 USING EXTINCTION WATER CONTENT FROM PREVIOUS STRESS PERIOD. CURRENT PERIOD IS:       2

 USING AIR ENTRY PRESSURE FROM PREVIOUS STRESS PERIOD. CURRENT PERIOD IS:       2

 USING ROOT PRESSURE HEAD FROM PREVIOUS STRESS PERIOD. CURRENT PERIOD IS:       2

 USING ROOT ACTIVITY FROM PREVIOUS STRESS PERIOD. CURRENT PERIOD IS:       2

 PROCESSING AG STRESS PERIOD DATA

 READING AG STRESS PERIOD DATA

 READING IRRIGATION WELL

 END PROCESSING AG STRESS PERIOD DATA OPTIONS
 
 SOLVING FOR HEAD 
                                                   Max.-Head-Change                         Max.-Flux-Residual
  Residual-Control   Outer-Iter.   Inner-Iter.     Column Row Layer    Maximum-Head-Change  Column Row Layer    Maximum-Flux-Residual          L2-NORM 
          0                 1           2             4   13     1       0.6100919041E-02       4   13    1         0.3498418340E+00      0.7241930586E+00
          0                 2           2             4   13     1      -0.5804860109E-03       4   13    1        -0.3422487416E-01      0.7535301527E-01
          0                 3           1             4   13     1       0.3890269108E-04       4   13    1         0.2358247986E-02      0.5142529305E-02

    ------------------------------------------------
       NWT REQUIRED            3 OUTER ITERATIONS 
       AND A TOTAL OF          5 INNER ITERATIONS.
    ------------------------------------------------

 NO OUTPUT CONTROL FOR STRESS PERIOD    2   TIME STEP    1
 
 SOLVING FOR HEAD 
                                                   Max.-Head-Change                         Max.-Flux-Residual
  Residual-Control   Outer-Iter.   Inner-Iter.     Column Row Layer    Maximum-Head-Change  Column Row Layer    Maximum-Flux-Residual          L2-NORM 
          0                 1           2             2   13     1       0.5599485135E-02       4   13    1         0.3174745166E+00      0.6799945182E+00
          0                 2           2             4   13     1      -0.5332830314E-03       4   13    1        -0.3142407070E-01      0.6665652851E-01
          0                 3           1             4   13     1       0.3579170672E-04       4   13    1         0.2168417202E-02      0.4540773980E-02

    ------------------------------------------------
       NWT REQUIRED            3 OUTER ITERATIONS 
       AND A TOTAL OF          5 INNER ITERATIONS.
    ------------------------------------------------

 NO OUTPUT CONTROL FOR STRESS PERIOD    2   TIME STEP    2
 
 SOLVING FOR HEAD 
                                                   Max.-Head-Change                         Max.-Flux-Residual
  Residual-Control   Outer-Iter.   Inner-Iter.     Column Row Layer    Maximum-Head-Change  Column Row Layer    Maximum-Flux-Residual          L2-NORM 
          0                 1           2             2   13     1       0.5185884406E-02       2   13    1         0.2917485494E+00      0.6422044993E+00
          0                 2           2             4   13     1      -0.4838831011E-03       4   13    1        -0.2849660932E-01      0.6300684429E-01
          0                 3           1             4   13     1       0.3247889756E-04       4   13    1         0.1966573949E-02      0.4297037243E-02

    ------------------------------------------------
       NWT REQUIRED            3 OUTER ITERATIONS 
       AND A TOTAL OF          5 INNER ITERATIONS.
    ------------------------------------------------

 NO OUTPUT CONTROL FOR STRESS PERIOD    2   TIME STEP    3
 
 SOLVING FOR HEAD 
                                                   Max.-Head-Change                         Max.-Flux-Residual
  Residual-Control   Outer-Iter.   Inner-Iter.     Column Row Layer    Maximum-Head-Change  Column Row Layer    Maximum-Flux-Residual          L2-NORM 
          0                 1           2             2   13     1       0.4803154029E-02       2   13    1         0.2701873240E+00      0.6081803872E+00
          0                 2           2             2   13     1      -0.4473179284E-03       2   13    1        -0.2586578846E-01      0.5972310199E-01
          0                 3           1             4   13     1       0.2948219716E-04       4   13    1         0.1784025593E-02      0.4078588667E-02

    ------------------------------------------------
       NWT REQUIRED            3 OUTER ITERATIONS 
       AND A TOTAL OF          5 INNER ITERATIONS.
    ------------------------------------------------

 NO OUTPUT CONTROL FOR STRESS PERIOD    2   TIME STEP    4
 
 SOLVING FOR HEAD 
                                                   Max.-Head-Change                         Max.-Flux-Residual
  Residual-Control   Outer-Iter.   Inner-Iter.     Column Row Layer    Maximum-Head-Change  Column Row Layer    Maximum-Flux-Residual          L2-NORM 
          0                 1           2             2   13     1       0.4449040972E-02       2   13    1         0.2502395760E+00      0.5775475204E+00
          0                 2           2             2   13     1      -0.4144801037E-03       2   13    1        -0.2396415219E-01      0.5676821826E-01
          0                 3           1             4   13     1       0.2676866390E-04       4   13    1         0.1618800686E-02      0.3881521732E-02

    ------------------------------------------------
       NWT REQUIRED            3 OUTER ITERATIONS 
       AND A TOTAL OF          5 INNER ITERATIONS.
    ------------------------------------------------

 NO OUTPUT CONTROL FOR STRESS PERIOD    2   TIME STEP    5
 
 SOLVING FOR HEAD 
                                                   Max.-Head-Change                         Max.-Flux-Residual
  Residual-Control   Outer-Iter.   Inner-Iter.     Column Row Layer    Maximum-Head-Change  Column Row Layer    Maximum-Flux-Residual          L2-NORM 
          0                 1           2             2   13     1       0.4121446218E-02       2   13    1         0.2317868444E+00      0.5499873162E+00
          0                 2           2             2   13     1      -0.3841207992E-03       2   13    1        -0.2220618270E-01      0.5411296304E-01
          0                 3           1             2    2     1       0.2466198281E-04       4   13    1         0.1471168053E-02      0.3706003663E-02

    ------------------------------------------------
       NWT REQUIRED            3 OUTER ITERATIONS 
       AND A TOTAL OF          5 INNER ITERATIONS.
    ------------------------------------------------

 NO OUTPUT CONTROL FOR STRESS PERIOD    2   TIME STEP    6
 
 SOLVING FOR HEAD 
                                                   Max.-Head-Change                         Max.-Flux-Residual
  Residual-Control   Outer-Iter.   Inner-Iter.     Column Row Layer    Maximum-Head-Change  Column Row Layer    Maximum-Flux-Residual          L2-NORM 
          0                 1           2             2   13     1       0.3818221148E-02       2   13    1         0.2147078483E+00      0.5251892090E+00
          0                 2           2             2    2     1      -0.3594198925E-03       2   13    1        -0.2057585153E-01      0.5172403295E-01
          0                 3           1             2    2     1       0.2447515648E-04       2   13    1         0.1355394319E-02      0.3547183221E-02

    ------------------------------------------------
       NWT REQUIRED            3 OUTER ITERATIONS 
       AND A TOTAL OF          5 INNER ITERATIONS.
    ------------------------------------------------

 NO OUTPUT CONTROL FOR STRESS PERIOD    2   TIME STEP    7
 
 SOLVING FOR HEAD 
                                                   Max.-Head-Change                         Max.-Flux-Residual
  Residual-Control   Outer-Iter.   Inner-Iter.     Column Row Layer    Maximum-Head-Change  Column Row Layer    Maximum-Flux-Residual          L2-NORM 
          0                 1           2             2    2     1       0.3667085789E-02       2   13    1         0.1989108451E+00      0.5028814641E+00
          0                 2           2             2    2     1      -0.3567080353E-03       2    2    1        -0.1917041004E-01      0.4957487384E-01
          0                 3           1             2    2     1       0.2429048908E-04       2    2    1         0.1341928919E-02      0.3403801657E-02

    ------------------------------------------------
       NWT REQUIRED            3 OUTER ITERATIONS 
       AND A TOTAL OF          5 INNER ITERATIONS.
    ------------------------------------------------

 NO OUTPUT CONTROL FOR STRESS PERIOD    2   TIME STEP    8
 
 SOLVING FOR HEAD 
                                                   Max.-Head-Change                         Max.-Flux-Residual
  Residual-Control   Outer-Iter.   Inner-Iter.     Column Row Layer    Maximum-Head-Change  Column Row Layer    Maximum-Flux-Residual          L2-NORM 
          0                 1           2             2    2     1       0.3639701008E-02       2    2    1         0.1902627778E+00      0.4828023298E+00
          0                 2           2             2    2     1      -0.3540442310E-03       2    2    1        -0.1902631586E-01      0.4764139681E-01
          0                 3           1             2    2     1       0.2410909393E-04       2    2    1         0.1331842321E-02      0.3275277796E-02

    ------------------------------------------------
       NWT REQUIRED            3 OUTER ITERATIONS 
       AND A TOTAL OF          5 INNER ITERATIONS.
    ------------------------------------------------

 NO OUTPUT CONTROL FOR STRESS PERIOD    2   TIME STEP    9
 
 SOLVING FOR HEAD 
                                                   Max.-Head-Change                         Max.-Flux-Residual
  Residual-Control   Outer-Iter.   Inner-Iter.     Column Row Layer    Maximum-Head-Change  Column Row Layer    Maximum-Flux-Residual          L2-NORM 
          0                 1           2             2    2     1       0.3612629094E-02       2    2    1         0.1888383547E+00      0.4647309080E+00
          0                 2           2             2    2     1      -0.3514108598E-03       2    2    1        -0.1888387273E-01      0.4590245170E-01
          0                 3           1             2    2     1       0.2392977109E-04       2    2    1         0.1321871310E-02      0.3160637835E-02

    ------------------------------------------------
       NWT REQUIRED            3 OUTER ITERATIONS 
       AND A TOTAL OF          5 INNER ITERATIONS.
    ------------------------------------------------

 NO OUTPUT CONTROL FOR STRESS PERIOD    2   TIME STEP   10
 
 SOLVING FOR HEAD 
                                                   Max.-Head-Change                         Max.-Flux-Residual
  Residual-Control   Outer-Iter.   Inner-Iter.     Column Row Layer    Maximum-Head-Change  Column Row Layer    Maximum-Flux-Residual          L2-NORM 
          0                 1           2             2    2     1       0.3585951204E-02       2    2    1         0.1874347047E+00      0.4484530803E+00
          0                 2           2             2    2     1      -0.3488158168E-03       2    2    1        -0.1874350697E-01      0.4433586465E-01
          0                 3           1             2    2     1       0.2375305852E-04       2    2    1         0.1312045692E-02      0.3055843380E-02

    ------------------------------------------------
       NWT REQUIRED            3 OUTER ITERATIONS 
       AND A TOTAL OF          5 INNER ITERATIONS.
    ------------------------------------------------

 NO OUTPUT CONTROL FOR STRESS PERIOD    2   TIME STEP   11
 
 SOLVING FOR HEAD 
                                                   Max.-Head-Change                         Max.-Flux-Residual
  Residual-Control   Outer-Iter.   Inner-Iter.     Column Row Layer    Maximum-Head-Change  Column Row Layer    Maximum-Flux-Residual          L2-NORM 
          0                 1           2             2    2     1       0.3559571552E-02       2    2    1         0.1860468156E+00      0.4337718088E+00
          0                 2           2             2    2     1      -0.3462497853E-03       2    2    1        -0.1860471735E-01      0.4292387309E-01
          0                 3           1             2    2     1       0.2357832146E-04       2    2    1         0.1302330426E-02      0.2962625798E-02

    ------------------------------------------------
       NWT REQUIRED            3 OUTER ITERATIONS 
       AND A TOTAL OF          5 INNER ITERATIONS.
    ------------------------------------------------

 NO OUTPUT CONTROL FOR STRESS PERIOD    2   TIME STEP   12
 
 SOLVING FOR HEAD 
                                                   Max.-Head-Change                         Max.-Flux-Residual
  Residual-Control   Outer-Iter.   Inner-Iter.     Column Row Layer    Maximum-Head-Change  Column Row Layer    Maximum-Flux-Residual          L2-NORM 
          0                 1           2             2    2     1       0.3533663503E-02       2    2    1         0.1846837273E+00      0.4205329170E+00
          0                 2           2             2    2     1      -0.3437296279E-03       2    2    1        -0.1846840780E-01      0.4164860976E-01
          0                 3           1             2    2     1       0.2340670825E-04       2    2    1         0.1292788776E-02      0.2877611772E-02

    ------------------------------------------------
       NWT REQUIRED            3 OUTER ITERATIONS 
       AND A TOTAL OF          5 INNER ITERATIONS.
    ------------------------------------------------

 NO OUTPUT CONTROL FOR STRESS PERIOD    2   TIME STEP   13
 
 SOLVING FOR HEAD 
                                                   Max.-Head-Change                         Max.-Flux-Residual
  Residual-Control   Outer-Iter.   Inner-Iter.     Column Row Layer    Maximum-Head-Change  Column Row Layer    Maximum-Flux-Residual          L2-NORM 
          0                 1           2             2    2     1       0.3508043674E-02       2    2    1         0.1833358706E+00      0.4085690191E+00
          0                 2           2             2    2     1      -0.3412375067E-03       2    2    1        -0.1833362145E-01      0.4049741654E-01
          0                 3           1             2    2     1       0.2323700428E-04       2    2    1         0.1283353723E-02      0.2801427160E-02

    ------------------------------------------------
       NWT REQUIRED            3 OUTER ITERATIONS 
       AND A TOTAL OF          5 INNER ITERATIONS.
    ------------------------------------------------

 NO OUTPUT CONTROL FOR STRESS PERIOD    2   TIME STEP   14
 
 SOLVING FOR HEAD 
                                                   Max.-Head-Change                         Max.-Flux-Residual
  Residual-Control   Outer-Iter.   Inner-Iter.     Column Row Layer    Maximum-Head-Change  Column Row Layer    Maximum-Flux-Residual          L2-NORM 
          0                 1           2             2    2     1       0.3482793688E-02       2    2    1         0.1820075095E+00      0.3977359959E+00
          0                 2           2             2    2     1      -0.3387813617E-03       2    2    1        -0.1820078465E-01      0.3945385013E-01
          0                 3           1             2    2     1       0.2306975036E-04       2    2    1         0.1274055180E-02      0.2732021932E-02

    ------------------------------------------------
       NWT REQUIRED            3 OUTER ITERATIONS 
       AND A TOTAL OF          5 INNER ITERATIONS.
    ------------------------------------------------

 NO OUTPUT CONTROL FOR STRESS PERIOD    2   TIME STEP   15
 
 SOLVING FOR HEAD 
                                                   Max.-Head-Change                         Max.-Flux-Residual
  Residual-Control   Outer-Iter.   Inner-Iter.     Column Row Layer    Maximum-Head-Change  Column Row Layer    Maximum-Flux-Residual          L2-NORM 
          0                 1           2             2    2     1       0.3457907880E-02       2    2    1         0.1806983244E+00      0.3879262877E+00
          0                 2           2             2    2     1      -0.3363606409E-03       2    2    1        -0.1806986548E-01      0.3850829212E-01
          0                 3           1             2    2     1       0.2290490790E-04       2    2    1         0.1264890818E-02      0.2668386228E-02

    ------------------------------------------------
       NWT REQUIRED            3 OUTER ITERATIONS 
       AND A TOTAL OF          5 INNER ITERATIONS.
    ------------------------------------------------

 NO OUTPUT CONTROL FOR STRESS PERIOD    2   TIME STEP   16
 
 SOLVING FOR HEAD 
                                                   Max.-Head-Change                         Max.-Flux-Residual
  Residual-Control   Outer-Iter.   Inner-Iter.     Column Row Layer    Maximum-Head-Change  Column Row Layer    Maximum-Flux-Residual          L2-NORM 
          0                 1           2             2    2     1       0.3433380672E-02       2    2    1         0.1794080215E+00      0.3790053448E+00
          0                 2           2             2    2     1      -0.3339748030E-03       2    2    1        -0.1794083456E-01      0.3764764780E-01
          0                 3           1             2    2     1       0.2274244116E-04       2    2    1         0.1255858658E-02      0.2612327691E-02

    ------------------------------------------------
       NWT REQUIRED            3 OUTER ITERATIONS 
       AND A TOTAL OF          5 INNER ITERATIONS.
    ------------------------------------------------

 NO OUTPUT CONTROL FOR STRESS PERIOD    2   TIME STEP   17
 
 SOLVING FOR HEAD 
                                                   Max.-Head-Change                         Max.-Flux-Residual
  Residual-Control   Outer-Iter.   Inner-Iter.     Column Row Layer    Maximum-Head-Change  Column Row Layer    Maximum-Flux-Residual          L2-NORM 
          0                 1           2             2    2     1       0.3409205831E-02       2    2    1         0.1781363116E+00      0.3708959238E+00
          0                 2           2             2    2     1      -0.3316232403E-03       2    2    1        -0.1781366293E-01      0.3686551279E-01
          0                 3           1             2    2     1       0.2258230874E-04       2    2    1         0.1246956648E-02      0.2559373117E-02

    ------------------------------------------------
       NWT REQUIRED            3 OUTER ITERATIONS 
       AND A TOTAL OF          5 INNER ITERATIONS.
    ------------------------------------------------

 NO OUTPUT CONTROL FOR STRESS PERIOD    2   TIME STEP   18
 
 SOLVING FOR HEAD 
                                                   Max.-Head-Change                         Max.-Flux-Residual
  Residual-Control   Outer-Iter.   Inner-Iter.     Column Row Layer    Maximum-Head-Change  Column Row Layer    Maximum-Flux-Residual          L2-NORM 
          0                 1           2             2    2     1       0.3385290862E-02       2    2    1         0.1768783193E+00      0.3634934776E+00
          0                 2           2             2    2     1      -0.3292969569E-03       2    2    1        -0.1768786309E-01      0.3614994633E-01
          0                 3           1             2    2     1       0.2242389740E-04       2    2    1         0.1238150655E-02      0.2512089789E-02

    ------------------------------------------------
       NWT REQUIRED            3 OUTER ITERATIONS 
       AND A TOTAL OF          5 INNER ITERATIONS.
    ------------------------------------------------

 NO OUTPUT CONTROL FOR STRESS PERIOD    2   TIME STEP   19
 
 SOLVING FOR HEAD 
                                                   Max.-Head-Change                         Max.-Flux-Residual
  Residual-Control   Outer-Iter.   Inner-Iter.     Column Row Layer    Maximum-Head-Change  Column Row Layer    Maximum-Flux-Residual          L2-NORM 
          0                 1           2             2    2     1       0.3361717890E-02       2    2    1         0.1756383533E+00      0.3567232374E+00
          0                 2           2             2    2     1      -0.3270039399E-03       2    2    1        -0.1756386587E-01      0.3549550141E-01
          0                 3           1             2    2     1       0.2226775150E-04       2    2    1         0.1229470848E-02      0.2468656893E-02

    ------------------------------------------------
       NWT REQUIRED            3 OUTER ITERATIONS 
       AND A TOTAL OF          5 INNER ITERATIONS.
    ------------------------------------------------

 NO OUTPUT CONTROL FOR STRESS PERIOD    2   TIME STEP   20
 
 SOLVING FOR HEAD 
                                                   Max.-Head-Change                         Max.-Flux-Residual
  Residual-Control   Outer-Iter.   Inner-Iter.     Column Row Layer    Maximum-Head-Change  Column Row Layer    Maximum-Flux-Residual          L2-NORM 
          0                 1           2             2    2     1       0.3338481753E-02       2    2    1         0.1744161195E+00      0.3505173767E+00
          0                 2           2             2    2     1      -0.3247436885E-03       2    2    1        -0.1744164192E-01      0.3489453705E-01
          0                 3           1             2    2     1       0.2211383624E-04       2    2    1         0.1220915152E-02      0.2428186917E-02

    ------------------------------------------------
       NWT REQUIRED            3 OUTER ITERATIONS 
       AND A TOTAL OF          5 INNER ITERATIONS.
    ------------------------------------------------

 NO OUTPUT CONTROL FOR STRESS PERIOD    2   TIME STEP   21
 
 SOLVING FOR HEAD 
                                                   Max.-Head-Change                         Max.-Flux-Residual
  Residual-Control   Outer-Iter.   Inner-Iter.     Column Row Layer    Maximum-Head-Change  Column Row Layer    Maximum-Flux-Residual          L2-NORM 
          0                 1           2             2    2     1       0.3315576565E-02       2    2    1         0.1732113502E+00      0.3448121673E+00
          0                 2           2             2    2     1      -0.3225156302E-03       2    2    1        -0.1732116441E-01      0.3434185142E-01
          0                 3           1             2    2     1       0.2196211495E-04       2    2    1         0.1212481770E-02      0.2391410482E-02

    ------------------------------------------------
       NWT REQUIRED            3 OUTER ITERATIONS 
       AND A TOTAL OF          5 INNER ITERATIONS.
    ------------------------------------------------

 NO OUTPUT CONTROL FOR STRESS PERIOD    2   TIME STEP   22
 
 SOLVING FOR HEAD 
                                                   Max.-Head-Change                         Max.-Flux-Residual
  Residual-Control   Outer-Iter.   Inner-Iter.     Column Row Layer    Maximum-Head-Change  Column Row Layer    Maximum-Flux-Residual          L2-NORM 
          0                 1           2             2    2     1       0.3292997315E-02       2    2    1         0.1720237402E+00      0.3395514357E+00
          0                 2           2             2    2     1      -0.3203192764E-03       2    2    1        -0.1720240288E-01      0.3383130430E-01
          0                 3           1             2    2     1       0.2181255093E-04       2    2    1         0.1204168445E-02      0.2356589915E-02

    ------------------------------------------------
       NWT REQUIRED            3 OUTER ITERATIONS 
       AND A TOTAL OF          5 INNER ITERATIONS.
    ------------------------------------------------

 NO OUTPUT CONTROL FOR STRESS PERIOD    2   TIME STEP   23
 
 SOLVING FOR HEAD 
                                                   Max.-Head-Change                         Max.-Flux-Residual
  Residual-Control   Outer-Iter.   Inner-Iter.     Column Row Layer    Maximum-Head-Change  Column Row Layer    Maximum-Flux-Residual          L2-NORM 
          0                 1           2             2    2     1       0.3270656481E-02       2    2    1         0.1708487113E+00      0.3346879897E+00
          0                 2           2             2    2     1      -0.3181461140E-03       2    2    1        -0.1708489944E-01      0.3335830768E-01
          0                 3           1             2    2     1       0.2166456671E-04       2    2    1         0.1195943205E-02      0.2325026302E-02

    ------------------------------------------------
       NWT REQUIRED            3 OUTER ITERATIONS 
       AND A TOTAL OF          5 INNER ITERATIONS.
    ------------------------------------------------

 NO OUTPUT CONTROL FOR STRESS PERIOD    2   TIME STEP   24
 
 SOLVING FOR HEAD 
                                                   Max.-Head-Change                         Max.-Flux-Residual
  Residual-Control   Outer-Iter.   Inner-Iter.     Column Row Layer    Maximum-Head-Change  Column Row Layer    Maximum-Flux-Residual          L2-NORM 
          0                 1           2             2    2     1       0.3248714730E-02       2    2    1         0.1696946811E+00      0.3301814118E+00
          0                 2           2             2    2     1      -0.3160117719E-03       2    2    1        -0.1696949589E-01      0.3291993999E-01
          0                 3           1             2    2     1       0.2151922589E-04       2    2    1         0.1187864950E-02      0.2295240678E-02

    ------------------------------------------------
       NWT REQUIRED            3 OUTER ITERATIONS 
       AND A TOTAL OF          5 INNER ITERATIONS.
    ------------------------------------------------

 NO OUTPUT CONTROL FOR STRESS PERIOD    2   TIME STEP   25
 
 SOLVING FOR HEAD 
                                                   Max.-Head-Change                         Max.-Flux-Residual
  Residual-Control   Outer-Iter.   Inner-Iter.     Column Row Layer    Maximum-Head-Change  Column Row Layer    Maximum-Flux-Residual          L2-NORM 
          0                 1           2             2    2     1       0.3226996200E-02       2    2    1         0.1685524713E+00      0.3259930173E+00
          0                 2           2             2    2     1      -0.3138991437E-03       2    2    1        -0.1685527439E-01      0.3251194433E-01
          0                 3           1             2    2     1       0.2137536404E-04       2    2    1         0.1179869468E-02      0.2267923572E-02

    ------------------------------------------------
       NWT REQUIRED            3 OUTER ITERATIONS 
       AND A TOTAL OF          5 INNER ITERATIONS.
    ------------------------------------------------

 NO OUTPUT CONTROL FOR STRESS PERIOD    2   TIME STEP   26
 
 SOLVING FOR HEAD 
                                                   Max.-Head-Change                         Max.-Flux-Residual
  Residual-Control   Outer-Iter.   Inner-Iter.     Column Row Layer    Maximum-Head-Change  Column Row Layer    Maximum-Flux-Residual          L2-NORM 
          0                 1           2             2    2     1       0.3205584433E-02       2    2    1         0.1674263883E+00      0.3220846077E+00
          0                 2           2             2    2     1      -0.3118163549E-03       2    2    1        -0.1674266559E-01      0.3213058254E-01
          0                 3           1             2    2     1       0.2123353379E-04       2    2    1         0.1171986842E-02      0.2242117281E-02

    ------------------------------------------------
       NWT REQUIRED            3 OUTER ITERATIONS 
       AND A TOTAL OF          5 INNER ITERATIONS.
    ------------------------------------------------

 NO OUTPUT CONTROL FOR STRESS PERIOD    2   TIME STEP   27
 
 SOLVING FOR HEAD 
                                                   Max.-Head-Change                         Max.-Flux-Residual
  Residual-Control   Outer-Iter.   Inner-Iter.     Column Row Layer    Maximum-Head-Change  Column Row Layer    Maximum-Flux-Residual          L2-NORM 
          0                 1           2             2    2     1       0.3184474025E-02       2    2    1         0.1663162106E+00      0.3184304815E+00
          0                 2           2             2    2     1      -0.3097628807E-03       2    2    1        -0.1663164734E-01      0.3177337357E-01
          0                 3           1             2    2     1       0.2109369989E-04       2    2    1         0.1164215575E-02      0.2217224628E-02

    ------------------------------------------------
       NWT REQUIRED            3 OUTER ITERATIONS 
       AND A TOTAL OF          5 INNER ITERATIONS.
    ------------------------------------------------

 NO OUTPUT CONTROL FOR STRESS PERIOD    2   TIME STEP   28
 
 SOLVING FOR HEAD 
                                                   Max.-Head-Change                         Max.-Flux-Residual
  Residual-Control   Outer-Iter.   Inner-Iter.     Column Row Layer    Maximum-Head-Change  Column Row Layer    Maximum-Flux-Residual          L2-NORM 
          0                 1           2             2    2     1       0.3163660535E-02       2    2    1         0.1652216580E+00      0.3150071140E+00
          0                 2           2             2    2     1      -0.3077382883E-03       2    2    1        -0.1652219160E-01      0.3143872281E-01
          0                 3           1             2    2     1       0.2095583274E-04       2    2    1         0.1156553659E-02      0.2195039549E-02

    ------------------------------------------------
       NWT REQUIRED            3 OUTER ITERATIONS 
       AND A TOTAL OF          5 INNER ITERATIONS.
    ------------------------------------------------

 NO OUTPUT CONTROL FOR STRESS PERIOD    2   TIME STEP   29
 
 SOLVING FOR HEAD 
                                                   Max.-Head-Change                         Max.-Flux-Residual
  Residual-Control   Outer-Iter.   Inner-Iter.     Column Row Layer    Maximum-Head-Change  Column Row Layer    Maximum-Flux-Residual          L2-NORM 
          0                 1           2             2    2     1       0.3143052426E-02       2    2    1         0.1641379469E+00      0.3117834489E+00
          0                 2           2             2    2     1      -0.3057336742E-03       2    2    1        -0.1641382002E-01      0.3112282237E-01
          0                 3           1             2    2     1       0.2081932575E-04       2    2    1         0.1148967647E-02      0.2173514920E-02

    ------------------------------------------------
       NWT REQUIRED            3 OUTER ITERATIONS 
       AND A TOTAL OF          5 INNER ITERATIONS.
    ------------------------------------------------

 NO OUTPUT CONTROL FOR STRESS PERIOD    2   TIME STEP   30



 STREAM LISTING     PERIOD      2   STEP       30

 LAYER ROW COL. STREAM  RCH.  FLOW INTO     FLOW TO   FLOW OUT OF   OVRLND.     DIRECT     STREAM       STREAM     STREAM     STREAM   STREAMBED  STREAMBED
                SEG.NO.  NO.  STRM. RCH.    AQUIFER    STRM. RCH.    RUNOFF     PRECIP       ET          HEAD       DEPTH      WIDTH   CONDCTNC.   GRADIENT

   1    1    1     1     1    2.2000E+01  2.3088E-01   2.1769E+01  0.000E+00  0.000E+00  0.000E+00  1.09418E+03  1.132E+00  1.242E+01  5.588E-02  1.377E+00
   1    2    2     1     2    2.1769E+01  3.5689E-01   2.1412E+01  0.000E+00  0.000E+00  0.000E+00  1.08919E+03  1.127E+00  1.235E+01  8.648E-02  1.376E+00
   1    3    3     1     3    2.1412E+01  3.0372E-01   2.1109E+01  0.000E+00  0.000E+00  0.000E+00  1.08354E+03  1.121E+00  1.228E+01  7.369E-02  1.374E+00
   1    3    4     1     4    2.1109E+01  2.7914E-01   2.0829E+01  0.000E+00  0.000E+00  0.000E+00  1.07852E+03  1.117E+00  1.222E+01  6.781E-02  1.372E+00
   1    4    5     2     1    1.8829E+01  3.1306E-01   1.8516E+01  0.000E+00  0.000E+00  0.000E+00  1.07295E+03  1.014E+00  1.200E+01  7.800E-02  1.338E+00
   1    5    6     2     2    1.8516E+01  2.4027E-01   1.8276E+01  0.000E+00  0.000E+00  0.000E+00  1.06751E+03  1.005E+00  1.200E+01  6.000E-02  1.335E+00
   1    6    6     2     3    1.8276E+01  2.3980E-01   1.8036E+01  0.000E+00  0.000E+00  0.000E+00  1.06279E+03  9.967E-01  1.200E+01  6.000E-02  1.332E+00
   1    7    6     2     4    1.8036E+01  2.3933E-01   1.7797E+01  0.000E+00  0.000E+00  0.000E+00  1.05806E+03  9.888E-01  1.200E+01  6.000E-02  1.330E+00
   1    8    6     2     5    1.7797E+01  2.3885E-01   1.7558E+01  0.000E+00  0.000E+00  0.000E+00  1.05334E+03  9.808E-01  1.200E+01  6.000E-02  1.327E+00
   1    3    5     3     1    2.0000E+00  2.8252E-01   1.7175E+00  0.000E+00  0.000E+00  0.000E+00  1.07555E+03  1.909E+00  9.636E+00  7.227E-02  1.955E+00
   1    3    6     3     2    1.7175E+00  2.4905E-01   1.4684E+00  0.000E+00  0.000E+00  0.000E+00  1.07264E+03  1.727E+00  8.909E+00  6.682E-02  1.864E+00
   1    3    7     3     3    1.4684E+00  1.9718E-01   1.2712E+00  0.000E+00  0.000E+00  0.000E+00  1.06987E+03  1.555E+00  8.218E+00  5.547E-02  1.777E+00
   1    4    8     3     4    1.2712E+00  2.2567E-01   1.0456E+00  0.000E+00  0.000E+00  0.000E+00  1.06682E+03  1.364E+00  7.455E+00  6.709E-02  1.682E+00
   1    5    8     3     5    1.0456E+00  1.5790E-01   8.8768E-01  0.000E+00  0.000E+00  0.000E+00  1.06362E+03  1.164E+00  6.655E+00  4.991E-02  1.582E+00
   1    6    8     3     6    8.8768E-01  5.5980E-02   8.3170E-01  0.000E+00  0.000E+00  0.000E+00  1.06158E+03  1.036E+00  6.145E+00  1.844E-02  1.518E+00
   1    5   10     4     1    1.0000E+01  9.0919E-02   9.9091E+00  0.000E+00  0.000E+00  0.000E+00  1.07836E+03  6.368E-01  1.000E+01  2.500E-02  1.212E+00
   1    5    9     4     2    9.9091E+00  1.8158E-01   9.7275E+00  0.000E+00  0.000E+00  0.000E+00  1.07154E+03  6.315E-01  1.000E+01  5.000E-02  1.211E+00
   1    6    8     4     3    9.7275E+00  1.2689E-01   9.6006E+00  0.000E+00  0.000E+00  0.000E+00  1.06381E+03  6.256E-01  1.000E+01  3.500E-02  1.209E+00
   1    6    8     5     1    1.0432E+01  2.2686E-01   1.0205E+01  0.000E+00  0.000E+00  0.000E+00  1.05868E+03  6.790E-01  1.542E+01  6.166E-02  1.226E+00
   1    7    7     5     2    1.0205E+01  2.7894E-01   9.9265E+00  0.000E+00  0.000E+00  0.000E+00  1.05417E+03  6.732E-01  1.519E+01  7.594E-02  1.224E+00
   1    8    7     5     3    9.9265E+00  1.9221E-01   9.7343E+00  0.000E+00  0.000E+00  0.000E+00  1.04992E+03  6.676E-01  1.497E+01  5.241E-02  1.223E+00
   1    8    6     5     4    9.7343E+00  1.3577E-01   9.5985E+00  0.000E+00  0.000E+00  0.000E+00  1.04691E+03  6.637E-01  1.482E+01  3.706E-02  1.221E+00
   1    9    6     6     1    2.7157E+01  2.5677E-01   2.6900E+01  0.000E+00  0.000E+00  0.000E+00  1.04401E+03  1.280E+00  1.200E+01  6.000E-02  1.427E+00
   1   10    7     6     2    2.6900E+01  2.5634E-01   2.6644E+01  0.000E+00  0.000E+00  0.000E+00  1.03945E+03  1.272E+00  1.200E+01  6.000E-02  1.424E+00
   1   11    7     6     3    2.6644E+01  2.5590E-01   2.6388E+01  0.000E+00  0.000E+00  0.000E+00  1.03490E+03  1.265E+00  1.200E+01  6.000E-02  1.422E+00
   1   12    7     6     4    2.6388E+01  2.5546E-01   2.6132E+01  0.000E+00  0.000E+00  0.000E+00  1.03035E+03  1.258E+00  1.200E+01  6.000E-02  1.419E+00
   1   13    7     6     5    2.6132E+01  1.0938E-03   2.6131E+01  0.000E+00  0.000E+00  0.000E+00  1.02716E+03  1.254E+00  1.200E+01  2.400E-02  1.519E-02
   1   14    9     7     1    1.5000E+02  1.3306E+00   1.4867E+02  0.000E+00  0.000E+00  0.000E+00  1.03987E+03  2.288E+00  5.529E+01  5.593E-01  7.930E-01
   1   13    8     7     2    1.4867E+02  1.8228E+00   1.4685E+02  0.000E+00  0.000E+00  0.000E+00  1.03478E+03  2.279E+00  5.526E+01  6.148E-01  9.883E-01
   1   13    7     7     3    1.4685E+02  1.4367E+00   1.4541E+02  0.000E+00  0.000E+00  0.000E+00  1.02969E+03  2.271E+00  5.522E+01  5.585E-01  8.575E-01
   1   13    6     8     1    1.7154E+02  8.8336E-01   1.7066E+02  0.000E+00  0.000E+00  0.000E+00  1.02483E+03  2.959E+00  4.291E+01  4.373E-01  6.734E-01
   1   13    5     8     2    1.7066E+02  1.2909E-01   1.7053E+02  0.000E+00  0.000E+00  0.000E+00  1.01858E+03  2.956E+00  4.286E+01  4.368E-01  9.852E-02
   1   13    4     8     3    1.7053E+02 -2.6157E+00   1.7314E+02  0.000E+00  0.000E+00  0.000E+00  1.01234E+03  2.964E+00  4.298E+01  4.380E+00 -1.991E-01
   1   13    3     8     4    1.7314E+02 -3.7119E+00   1.7686E+02  0.000E+00  0.000E+00  0.000E+00  1.00611E+03  2.984E+00  4.327E+01  4.410E+00 -2.806E-01
   1   13    2     8     5    1.7686E+02 -2.5514E+00   1.7941E+02  0.000E+00  0.000E+00  0.000E+00  9.99879E+02  3.004E+00  4.356E+01  4.439E+00 -1.916E-01
   1   13    1     8     6    1.7941E+02 -1.9322E+00   1.8134E+02  0.000E+00  0.000E+00  0.000E+00  9.94893E+02  3.019E+00  4.377E+01  2.676E+00 -2.407E-01





UNSATURATED ZONE PACKAGE VOLUMETRIC BUDGET FOR  TIME STEP    30 STRESS PERIOD    2
  ------------------------------------------------------------------------------



     CUMULATIVE VOLUMES      L**3       RATES FOR THIS TIME STEP      L**3/T
     ------------------                 ------------------------

           IN:                                      IN:
           ---                                      ---
        INFILTRATION =     2302148.8727          INFILTRATION =           0.8475

          OUT:                                     OUT:
          ----                                     ----
              UZF ET =     1972459.2683                UZF ET =           0.7500
        UZF RECHARGE =       73224.0000          UZF RECHARGE =       0.0000E+00

            IN - OUT =      256465.6044              IN - OUT =       9.7500E-02

          STORAGE:                                 STORAGE:
          --------                                 --------
      STORAGE CHANGE =      256465.6278        STORAGE CHANGE =       9.7500E-02

 PERCENT DISCREPANCY IS DIFFERENCE BETWEEN IN-OUT MINUS CHANGE IN STORAGE
 DIVIDED BY THE AVERAGE OF IN AND OUT TIMES 100

 PERCENT DISCREPANCY =          -0.00     PERCENT DISCREPANCY =           0.00






1
  VOLUMETRIC BUDGET FOR AGRICULTURAL FIELDS AT  END OF TIME STEP   30, STRESS PERIOD   2
  ------------------------------------------------------------------------------

     CUMULATIVE VOLUMES      L**3       RATES FOR THIS TIME STEP      L**3/T
     ------------------                 ------------------------

           IN:                                      IN:
           ---                                      ---
           AG WELLS      =           0.0000             AG WELLS      =           0.0000
      DIVERSION SEGMENTS =           0.0000        DIVERSION SEGMENTS =           0.0000
           GW IRRIGATION =           0.0000             GW IRRIGATION =           0.0000
           SW IRRIGATION =           0.0000             SW IRRIGATION =           0.0000
        SYSTEM LOSSES GW =           0.0000          SYSTEM LOSSES GW =           0.0000
        SYSTEM LOSSES SW =           0.0000          SYSTEM LOSSES SW =           0.0000

                TOTAL IN =           0.0000                  TOTAL IN =           0.0000

          OUT:                                     OUT:
          ----                                     ----
           AG WELLS      =           0.0000             AG WELLS      =           0.0000
      DIVERSION SEGMENTS =           0.0000        DIVERSION SEGMENTS =           0.0000
           GW IRRIGATION =           0.0000             GW IRRIGATION =           0.0000
           SW IRRIGATION =           0.0000             SW IRRIGATION =           0.0000
        SYSTEM LOSSES GW =           0.0000          SYSTEM LOSSES GW =           0.0000
        SYSTEM LOSSES SW =           0.0000          SYSTEM LOSSES SW =           0.0000

               TOTAL OUT =           0.0000                 TOTAL OUT =           0.0000

                IN - OUT =           0.0000                  IN - OUT =           0.0000

     PERCENT DISCREPANCY =           0.00         PERCENT DISCREPANCY =           0.00



1
  VOLUMETRIC BUDGET FOR ENTIRE MODEL AT END OF TIME STEP   30, STRESS PERIOD   2
  ------------------------------------------------------------------------------

     CUMULATIVE VOLUMES      L**3       RATES FOR THIS TIME STEP      L**3/T
     ------------------                 ------------------------

           IN:                                      IN:
           ---                                      ---
             STORAGE     =     1687680.6250               STORAGE     =           0.5792
       CONSTANT HEAD     =           0.0000         CONSTANT HEAD     =           0.0000
     HEAD DEP BOUNDS     =      775205.3125       HEAD DEP BOUNDS     =           0.2854
      STREAM LEAKAGE     =    31116962.0000        STREAM LEAKAGE     =          11.4714
        UZF RECHARGE     =       73223.9531          UZF RECHARGE     =           0.0000
               GW ET     =           0.0000                 GW ET     =           0.0000
     SURFACE LEAKAGE     =           0.0000       SURFACE LEAKAGE     =           0.0000
           AG WELLS      =           0.0000             AG WELLS      =           0.0000

                TOTAL IN =    33653072.0000                  TOTAL IN =          12.3360

          OUT:                                     OUT:
          ----                                     ----
             STORAGE     =     4220740.5000               STORAGE     =           1.2356
       CONSTANT HEAD     =           0.0000         CONSTANT HEAD     =           0.0000
     HEAD DEP BOUNDS     =      783850.8125       HEAD DEP BOUNDS     =           0.2894
      STREAM LEAKAGE     =    28649202.0000        STREAM LEAKAGE     =          10.8112
        UZF RECHARGE     =           0.0000          UZF RECHARGE     =           0.0000
               GW ET     =           0.0000                 GW ET     =           0.0000
     SURFACE LEAKAGE     =           0.0000       SURFACE LEAKAGE     =           0.0000
           AG WELLS      =           0.0000             AG WELLS      =           0.0000

               TOTAL OUT =    33653792.0000                 TOTAL OUT =          12.3362

                IN - OUT =        -720.0000                  IN - OUT =      -1.8311E-04

     PERCENT DISCREPANCY =          -0.00         PERCENT DISCREPANCY =          -0.00






         TIME SUMMARY AT END OF TIME STEP   30 IN STRESS PERIOD    2
                    SECONDS     MINUTES      HOURS       DAYS        YEARS
                    -----------------------------------------------------------
   TIME STEP LENGTH  87667.      1461.1      24.352      1.0147     2.77799E-03
 STRESS PERIOD TIME 2.63000E+06  43833.      730.56      30.440     8.33397E-02
         TOTAL TIME 2.71640E+06  45273.      754.56      31.440     8.60775E-02
1
1
                            STRESS PERIOD NO.    3, LENGTH =   2630000.    
                            -----------------------------------------------

                              NUMBER OF TIME STEPS =    30

                               MULTIPLIER FOR DELT =     1.000

                            INITIAL TIME STEP SIZE =   87666.66    

 REUSING NON-PARAMETER GHB CELLS FROM LAST STRESS PERIOD

      2 GHB CELLS

 REUSING STREAM SEGMENT DATA FROM LAST STRESS PERIOD



            AREAL INFILTRATION RATE
 READING ON UNIT   19 WITH FORMAT: (FREE)              

            1           2           3           4           5           6           7           8           9          10
 ........................................................................................................................
   1   1.0000E-10  2.0000E-10   0.000       0.000       0.000       0.000       0.000       0.000       0.000       0.000    
   2   2.0000E-10  1.0000E-10  2.0000E-10   0.000       0.000      8.0000E-10  8.0000E-10  5.0000E-10   0.000       0.000    
   3    0.000      5.0000E-10  1.0000E-10  1.0000E-10  8.0000E-10  8.0000E-10  5.0000E-10  5.0000E-10   0.000       0.000    
   4   8.0000E-10  5.0000E-10  1.0000E-10  1.0000E-10  1.0000E-10  1.0000E-10  1.0000E-10  1.0000E-10  2.0000E-10   0.000    
   5   8.0000E-10  5.0000E-10  1.0000E-10  1.0000E-10  1.0000E-10  1.0000E-10  1.0000E-10  1.0000E-10  1.0000E-10  1.0000E-10
   6   8.0000E-10  5.0000E-10  5.0000E-10  2.0000E-10  2.0000E-10  1.0000E-10  1.0000E-10  1.0000E-10  1.0000E-10  5.0000E-10
   7   8.0000E-10  5.0000E-10  5.0000E-10  2.0000E-10  2.0000E-10  1.0000E-10  1.0000E-10  2.0000E-10  2.0000E-10   0.000    
   8    0.000      5.0000E-10  5.0000E-10  2.0000E-10  2.0000E-10  1.0000E-10  1.0000E-10  2.0000E-10  5.0000E-10   0.000    
   9    0.000      5.0000E-10  5.0000E-10  2.0000E-10  2.0000E-10  1.0000E-10  1.0000E-10  2.0000E-10  5.0000E-10   0.000    
  10    0.000      5.0000E-10  5.0000E-10  2.0000E-10  2.0000E-10  1.0000E-10  1.0000E-10  2.0000E-10  5.0000E-10  8.0000E-10
  11    0.000      1.0000E-10  1.0000E-10  1.0000E-10  1.0000E-10  1.0000E-10  1.0000E-10  2.0000E-10  5.0000E-10   0.000    
  12   1.0000E-10  1.0000E-10  1.0000E-10  1.0000E-10  1.0000E-10  1.0000E-10  1.0000E-10  1.0000E-10  2.0000E-10   0.000    
  13   1.0000E-10  1.0000E-10  2.0000E-10  2.0000E-10  2.0000E-10  2.0000E-10  2.0000E-10  1.0000E-10  1.0000E-10   0.000    
  14    0.000      2.0000E-10  5.0000E-10  5.0000E-10  5.0000E-10  5.0000E-10  5.0000E-10  2.0000E-10  1.0000E-10   0.000    
  15    0.000       0.000      8.0000E-10  8.0000E-10  8.0000E-10  8.0000E-10   0.000       0.000       0.000       0.000    

                  ET RATE =  5.000000E-10

 USING ET EXTINCTION DEPTH FROM PREVIOUS STRESS PERIOD. CURRENT PERIOD IS:       3

 USING EXTINCTION WATER CONTENT FROM PREVIOUS STRESS PERIOD. CURRENT PERIOD IS:       3

 USING AIR ENTRY PRESSURE FROM PREVIOUS STRESS PERIOD. CURRENT PERIOD IS:       3

 USING ROOT PRESSURE HEAD FROM PREVIOUS STRESS PERIOD. CURRENT PERIOD IS:       3

 USING ROOT ACTIVITY FROM PREVIOUS STRESS PERIOD. CURRENT PERIOD IS:       3

 PROCESSING AG STRESS PERIOD DATA

 READING AG STRESS PERIOD DATA

 READING IRRIGATION WELL

 END PROCESSING AG STRESS PERIOD DATA OPTIONS
 
 SOLVING FOR HEAD 
                                                   Max.-Head-Change                         Max.-Flux-Residual
  Residual-Control   Outer-Iter.   Inner-Iter.     Column Row Layer    Maximum-Head-Change  Column Row Layer    Maximum-Flux-Residual          L2-NORM 
          0                 1           2             2    2     1       0.4445665168E-02       2   13    1         0.2434077885E+00      0.6122456567E+00
          0                 2           2             2    2     1      -0.4324427866E-03       4   13    1        -0.2398219309E-01      0.6028203064E-01
          0                 3           1             2    2     1       0.2944774286E-04       4   13    1         0.1653808416E-02      0.4133544402E-02

    ------------------------------------------------
       NWT REQUIRED            3 OUTER ITERATIONS 
       AND A TOTAL OF          5 INNER ITERATIONS.
    ------------------------------------------------

 NO OUTPUT CONTROL FOR STRESS PERIOD    3   TIME STEP    1
 
 SOLVING FOR HEAD 
                                                   Max.-Head-Change                         Max.-Flux-Residual
  Residual-Control   Outer-Iter.   Inner-Iter.     Column Row Layer    Maximum-Head-Change  Column Row Layer    Maximum-Flux-Residual          L2-NORM 
          0                 1           2             2   13     1       0.7704228482E-02       4   13    1         0.4384289893E+00      0.9459694615E+00
          0                 2           2             4   13     1      -0.7354772568E-03       4   13    1        -0.4338087861E-01      0.9263039001E-01
          0                 3           1             4   13     1       0.4933218303E-04       4   13    1         0.2991614172E-02      0.6300865252E-02

    ------------------------------------------------
       NWT REQUIRED            3 OUTER ITERATIONS 
       AND A TOTAL OF          5 INNER ITERATIONS.
    ------------------------------------------------

 NO OUTPUT CONTROL FOR STRESS PERIOD    3   TIME STEP    2
 
 SOLVING FOR HEAD 
                                                   Max.-Head-Change                         Max.-Flux-Residual
  Residual-Control   Outer-Iter.   Inner-Iter.     Column Row Layer    Maximum-Head-Change  Column Row Layer    Maximum-Flux-Residual          L2-NORM 
          0                 1           2             2   13     1       0.7121127234E-02       2   13    1         0.4014741535E+00      0.8938692328E+00
          0                 2           2             4   13     1      -0.6668062820E-03       4   13    1        -0.3930286909E-01      0.8761599149E-01
          0                 3           1             4   13     1       0.4473894970E-04       4   13    1         0.2711165901E-02      0.5968549507E-02

    ------------------------------------------------
       NWT REQUIRED            3 OUTER ITERATIONS 
       AND A TOTAL OF          5 INNER ITERATIONS.
    ------------------------------------------------

 NO OUTPUT CONTROL FOR STRESS PERIOD    3   TIME STEP    3
 
 SOLVING FOR HEAD 
                                                   Max.-Head-Change                         Max.-Flux-Residual
  Residual-Control   Outer-Iter.   Inner-Iter.     Column Row Layer    Maximum-Head-Change  Column Row Layer    Maximum-Flux-Residual          L2-NORM 
          0                 1           2             2   13     1       0.6582769729E-02       2   13    1         0.3710761315E+00      0.8472028472E+00
          0                 2           2             2   13     1      -0.6119549928E-03       4   13    1        -0.3563299834E-01      0.8313001593E-01
          0                 3           1             4   13     1       0.4058759603E-04       4   13    1         0.2457765077E-02      0.5671479927E-02

    ------------------------------------------------
       NWT REQUIRED            3 OUTER ITERATIONS 
       AND A TOTAL OF          5 INNER ITERATIONS.
    ------------------------------------------------

 NO OUTPUT CONTROL FOR STRESS PERIOD    3   TIME STEP    4
 
 SOLVING FOR HEAD 
                                                   Max.-Head-Change                         Max.-Flux-Residual
  Residual-Control   Outer-Iter.   Inner-Iter.     Column Row Layer    Maximum-Head-Change  Column Row Layer    Maximum-Flux-Residual          L2-NORM 
          0                 1           2             2   13     1       0.6085651864E-02       2   13    1         0.3430083489E+00      0.8054120520E+00
          0                 2           2             2   13     1      -0.5659524633E-03       2   13    1        -0.3278948288E-01      0.7911499148E-01
          0                 3           1             4   13     1       0.3682391790E-04       4   13    1         0.2228115018E-02      0.5405163780E-02

    ------------------------------------------------
       NWT REQUIRED            3 OUTER ITERATIONS 
       AND A TOTAL OF          5 INNER ITERATIONS.
    ------------------------------------------------

 NO OUTPUT CONTROL FOR STRESS PERIOD    3   TIME STEP    5
 
 SOLVING FOR HEAD 
                                                   Max.-Head-Change                         Max.-Flux-Residual
  Residual-Control   Outer-Iter.   Inner-Iter.     Column Row Layer    Maximum-Head-Change  Column Row Layer    Maximum-Flux-Residual          L2-NORM 
          0                 1           2             2   13     1       0.5626677921E-02       2   13    1         0.3170959907E+00      0.7680204251E+00
          0                 2           2             2   13     1      -0.5234555535E-03       2   13    1        -0.3032316165E-01      0.7552067469E-01
          0                 3           1             2    2     1       0.3527219965E-04       4   13    1         0.2025021868E-02      0.5168676099E-02

    ------------------------------------------------
       NWT REQUIRED            3 OUTER ITERATIONS 
       AND A TOTAL OF          5 INNER ITERATIONS.
    ------------------------------------------------

 NO OUTPUT CONTROL FOR STRESS PERIOD    3   TIME STEP    6
 
 SOLVING FOR HEAD 
                                                   Max.-Head-Change                         Max.-Flux-Residual
  Residual-Control   Outer-Iter.   Inner-Iter.     Column Row Layer    Maximum-Head-Change  Column Row Layer    Maximum-Flux-Residual          L2-NORM 
          0                 1           2             2    2     1       0.5289563717E-02       2   13    1         0.2931748824E+00      0.7345793756E+00
          0                 2           2             2    2     1      -0.5145314201E-03       2   13    1        -0.2804363929E-01      0.7231634392E-01
          0                 3           1             2    2     1       0.3503767112E-04       2    2    1         0.1933947680E-02      0.4957786103E-02

    ------------------------------------------------
       NWT REQUIRED            3 OUTER ITERATIONS 
       AND A TOTAL OF          5 INNER ITERATIONS.
    ------------------------------------------------

 NO OUTPUT CONTROL FOR STRESS PERIOD    3   TIME STEP    7
 
 SOLVING FOR HEAD 
                                                   Max.-Head-Change                         Max.-Flux-Residual
  Residual-Control   Outer-Iter.   Inner-Iter.     Column Row Layer    Maximum-Head-Change  Column Row Layer    Maximum-Flux-Residual          L2-NORM 
          0                 1           2             2    2     1       0.5254572817E-02       2    2    1         0.2744371631E+00      0.7046590867E+00
          0                 2           2             2    2     1      -0.5111277395E-03       2    2    1        -0.2744378862E-01      0.6944667644E-01
          0                 3           1             2    2     1       0.3480589343E-04       2    2    1         0.1921065339E-02      0.4767238732E-02

    ------------------------------------------------
       NWT REQUIRED            3 OUTER ITERATIONS 
       AND A TOTAL OF          5 INNER ITERATIONS.
    ------------------------------------------------

 NO OUTPUT CONTROL FOR STRESS PERIOD    3   TIME STEP    8
 
 SOLVING FOR HEAD 
                                                   Max.-Head-Change                         Max.-Flux-Residual
  Residual-Control   Outer-Iter.   Inner-Iter.     Column Row Layer    Maximum-Head-Change  Column Row Layer    Maximum-Flux-Residual          L2-NORM 
          0                 1           2             2    2     1       0.5220076866E-02       2    2    1         0.2726229246E+00      0.6779020571E+00
          0                 2           2             2    2     1      -0.5077722038E-03       2    2    1        -0.2726236342E-01      0.6688010131E-01
          0                 3           1             2    2     1       0.3457739438E-04       2    2    1         0.1908365592E-02      0.4597003011E-02

    ------------------------------------------------
       NWT REQUIRED            3 OUTER ITERATIONS 
       AND A TOTAL OF          5 INNER ITERATIONS.
    ------------------------------------------------

 NO OUTPUT CONTROL FOR STRESS PERIOD    3   TIME STEP    9
 
 SOLVING FOR HEAD 
                                                   Max.-Head-Change                         Max.-Flux-Residual
  Residual-Control   Outer-Iter.   Inner-Iter.     Column Row Layer    Maximum-Head-Change  Column Row Layer    Maximum-Flux-Residual          L2-NORM 
          0                 1           2             2    2     1       0.5186067833E-02       2    2    1         0.2708343486E+00      0.6539758233E+00
          0                 2           2             2    2     1      -0.5044640328E-03       2    2    1        -0.2708350454E-01      0.6459025465E-01
          0                 3           1             2    2     1       0.3435212000E-04       2    2    1         0.1895845473E-02      0.4446636434E-02

    ------------------------------------------------
       NWT REQUIRED            3 OUTER ITERATIONS 
       AND A TOTAL OF          5 INNER ITERATIONS.
    ------------------------------------------------

 NO OUTPUT CONTROL FOR STRESS PERIOD    3   TIME STEP   10
 
 SOLVING FOR HEAD 
                                                   Max.-Head-Change                         Max.-Flux-Residual
  Residual-Control   Outer-Iter.   Inner-Iter.     Column Row Layer    Maximum-Head-Change  Column Row Layer    Maximum-Flux-Residual          L2-NORM 
          0                 1           2             2    2     1       0.5152538631E-02       2    2    1         0.2690710188E+00      0.6325565660E+00
          0                 2           2             2    2     1      -0.5012025364E-03       2    2    1        -0.2690717027E-01      0.6253819138E-01
          0                 3           1             2    2     1       0.3413002462E-04       2    2    1         0.1883502089E-02      0.4311334424E-02

    ------------------------------------------------
       NWT REQUIRED            3 OUTER ITERATIONS 
       AND A TOTAL OF          5 INNER ITERATIONS.
    ------------------------------------------------

 NO OUTPUT CONTROL FOR STRESS PERIOD    3   TIME STEP   11
 
 SOLVING FOR HEAD 
                                                   Max.-Head-Change                         Max.-Flux-Residual
  Residual-Control   Outer-Iter.   Inner-Iter.     Column Row Layer    Maximum-Head-Change  Column Row Layer    Maximum-Flux-Residual          L2-NORM 
          0                 1           2             2    2     1       0.5119394344E-02       2    2    1         0.2673280123E+00      0.6133688537E+00
          0                 2           2             2    2     1      -0.4979784828E-03       2    2    1        -0.2673286842E-01      0.6070978094E-01
          0                 3           1             2    2     1       0.3391047868E-04       2    2    1         0.1871300965E-02      0.4190229289E-02

    ------------------------------------------------
       NWT REQUIRED            3 OUTER ITERATIONS 
       AND A TOTAL OF          5 INNER ITERATIONS.
    ------------------------------------------------

 NO OUTPUT CONTROL FOR STRESS PERIOD    3   TIME STEP   12
 
 SOLVING FOR HEAD 
                                                   Max.-Head-Change                         Max.-Flux-Residual
  Residual-Control   Outer-Iter.   Inner-Iter.     Column Row Layer    Maximum-Head-Change  Column Row Layer    Maximum-Flux-Residual          L2-NORM 
          0                 1           2             2    2     1       0.5086715246E-02       2    2    1         0.2656095184E+00      0.5961581105E+00
          0                 2           2             2    2     1      -0.4947996786E-03       2    2    1        -0.2656101780E-01      0.5905064292E-01
          0                 3           1             2    2     1       0.3369401400E-04       2    2    1         0.1859271408E-02      0.4082409705E-02

    ------------------------------------------------
       NWT REQUIRED            3 OUTER ITERATIONS 
       AND A TOTAL OF          5 INNER ITERATIONS.
    ------------------------------------------------

 NO OUTPUT CONTROL FOR STRESS PERIOD    3   TIME STEP   13
 
 SOLVING FOR HEAD 
                                                   Max.-Head-Change                         Max.-Flux-Residual
  Residual-Control   Outer-Iter.   Inner-Iter.     Column Row Layer    Maximum-Head-Change  Column Row Layer    Maximum-Flux-Residual          L2-NORM 
          0                 1           2             2    2     1       0.5054493826E-02       2    2    1         0.2639151442E+00      0.5807037900E+00
          0                 2           2             2    2     1      -0.4916653956E-03       2    2    1        -0.2639157920E-01      0.5757019161E-01
          0                 3           1             2    2     1       0.3348058109E-04       2    2    1         0.1847410733E-02      0.3985979683E-02

    ------------------------------------------------
       NWT REQUIRED            3 OUTER ITERATIONS 
       AND A TOTAL OF          5 INNER ITERATIONS.
    ------------------------------------------------

 NO OUTPUT CONTROL FOR STRESS PERIOD    3   TIME STEP   14
 
 SOLVING FOR HEAD 
                                                   Max.-Head-Change                         Max.-Flux-Residual
  Residual-Control   Outer-Iter.   Inner-Iter.     Column Row Layer    Maximum-Head-Change  Column Row Layer    Maximum-Flux-Residual          L2-NORM 
          0                 1           2             2    2     1       0.5022723105E-02       2    2    1         0.2622445000E+00      0.5668087471E+00
          0                 2           2             2    2     1      -0.4885749531E-03       2    2    1        -0.2622451362E-01      0.5627803117E-01
          0                 3           1             2    2     1       0.3327013382E-04       2    2    1         0.1835716143E-02      0.3898527241E-02

    ------------------------------------------------
       NWT REQUIRED            3 OUTER ITERATIONS 
       AND A TOTAL OF          5 INNER ITERATIONS.
    ------------------------------------------------

 NO OUTPUT CONTROL FOR STRESS PERIOD    3   TIME STEP   15
 
 SOLVING FOR HEAD 
                                                   Max.-Head-Change                         Max.-Flux-Residual
  Residual-Control   Outer-Iter.   Inner-Iter.     Column Row Layer    Maximum-Head-Change  Column Row Layer    Maximum-Flux-Residual          L2-NORM 
          0                 1           2             2    2     1       0.4991308671E-02       2    2    1         0.2605926681E+00      0.5542621598E+00
          0                 2           2             2    2     1      -0.4855191685E-03       2    2    1        -0.2605932931E-01      0.5503402573E-01
          0                 3           1             2    2     1       0.3306204595E-04       2    2    1         0.1824153239E-02      0.3816222713E-02

    ------------------------------------------------
       NWT REQUIRED            3 OUTER ITERATIONS 
       AND A TOTAL OF          5 INNER ITERATIONS.
    ------------------------------------------------

 NO OUTPUT CONTROL FOR STRESS PERIOD    3   TIME STEP   16
 
 SOLVING FOR HEAD 
                                                   Max.-Head-Change                         Max.-Flux-Residual
  Residual-Control   Outer-Iter.   Inner-Iter.     Column Row Layer    Maximum-Head-Change  Column Row Layer    Maximum-Flux-Residual          L2-NORM 
          0                 1           2             2    2     1       0.4960331271E-02       2    2    1         0.2589638650E+00      0.5429237287E+00
          0                 2           2             2    2     1      -0.4825058959E-03       2    2    1        -0.2589644792E-01      0.5394667978E-01
          0                 3           1             2    2     1       0.3285685377E-04       2    2    1         0.1812751558E-02      0.3744539295E-02

    ------------------------------------------------
       NWT REQUIRED            3 OUTER ITERATIONS 
       AND A TOTAL OF          5 INNER ITERATIONS.
    ------------------------------------------------

 NO OUTPUT CONTROL FOR STRESS PERIOD    3   TIME STEP   17
 
 SOLVING FOR HEAD 
                                                   Max.-Head-Change                         Max.-Flux-Residual
  Residual-Control   Outer-Iter.   Inner-Iter.     Column Row Layer    Maximum-Head-Change  Column Row Layer    Maximum-Flux-Residual          L2-NORM 
          0                 1           2             2    2     1       0.4929772141E-02       2    2    1         0.2573570875E+00      0.5326596317E+00
          0                 2           2             2    2     1      -0.4795333093E-03       2    2    1        -0.2573576909E-01      0.5295846477E-01
          0                 3           1             2    2     1       0.3265443162E-04       2    2    1         0.1801504035E-02      0.3678816758E-02

    ------------------------------------------------
       NWT REQUIRED            3 OUTER ITERATIONS 
       AND A TOTAL OF          5 INNER ITERATIONS.
    ------------------------------------------------

 NO OUTPUT CONTROL FOR STRESS PERIOD    3   TIME STEP   18
 
 SOLVING FOR HEAD 
                                                   Max.-Head-Change                         Max.-Flux-Residual
  Residual-Control   Outer-Iter.   Inner-Iter.     Column Row Layer    Maximum-Head-Change  Column Row Layer    Maximum-Flux-Residual          L2-NORM 
          0                 1           2             2    2     1       0.4899649117E-02       2    2    1         0.2557732654E+00      0.5233498770E+00
          0                 2           2             2    2     1      -0.4766031447E-03       2    2    1        -0.2557738583E-01      0.5206240272E-01
          0                 3           1             2    2     1       0.3245489854E-04       2    2    1         0.1790417213E-02      0.3619080227E-02

    ------------------------------------------------
       NWT REQUIRED            3 OUTER ITERATIONS 
       AND A TOTAL OF          5 INNER ITERATIONS.
    ------------------------------------------------

 NO OUTPUT CONTROL FOR STRESS PERIOD    3   TIME STEP   19
 
 SOLVING FOR HEAD 
                                                   Max.-Head-Change                         Max.-Flux-Residual
  Residual-Control   Outer-Iter.   Inner-Iter.     Column Row Layer    Maximum-Head-Change  Column Row Layer    Maximum-Flux-Residual          L2-NORM 
          0                 1           2             2    2     1       0.4869943561E-02       2    2    1         0.2542114206E+00      0.5148868058E+00
          0                 2           2             2    2     1      -0.4737135889E-03       2    2    1        -0.2542120034E-01      0.5124794178E-01
          0                 3           1             2    2     1       0.3225813098E-04       2    2    1         0.1779484243E-02      0.3565258007E-02

    ------------------------------------------------
       NWT REQUIRED            3 OUTER ITERATIONS 
       AND A TOTAL OF          5 INNER ITERATIONS.
    ------------------------------------------------

 NO OUTPUT CONTROL FOR STRESS PERIOD    3   TIME STEP   20
 
 SOLVING FOR HEAD 
                                                   Max.-Head-Change                         Max.-Flux-Residual
  Residual-Control   Outer-Iter.   Inner-Iter.     Column Row Layer    Maximum-Head-Change  Column Row Layer    Maximum-Flux-Residual          L2-NORM 
          0                 1           2             2    2     1       0.4840560851E-02       2    2    1         0.2526666643E+00      0.5071622080E+00
          0                 2           2             2    2     1      -0.4708554374E-03       2    2    1        -0.2526672370E-01      0.5050249960E-01
          0                 3           1             2    2     1       0.3206350177E-04       2    2    1         0.1768670896E-02      0.3515500124E-02

    ------------------------------------------------
       NWT REQUIRED            3 OUTER ITERATIONS 
       AND A TOTAL OF          5 INNER ITERATIONS.
    ------------------------------------------------

 NO OUTPUT CONTROL FOR STRESS PERIOD    3   TIME STEP   21
 
 SOLVING FOR HEAD 
                                                   Max.-Head-Change                         Max.-Flux-Residual
  Residual-Control   Outer-Iter.   Inner-Iter.     Column Row Layer    Maximum-Head-Change  Column Row Layer    Maximum-Flux-Residual          L2-NORM 
          0                 1           2             2    2     1       0.4811582746E-02       2    2    1         0.2511432039E+00      0.5000937098E+00
          0                 2           2             2    2     1      -0.4680366431E-03       2    2    1        -0.2511437668E-01      0.4982278199E-01
          0                 3           1             2    2     1       0.3187155194E-04       2    2    1         0.1758006591E-02      0.3472748536E-02

    ------------------------------------------------
       NWT REQUIRED            3 OUTER ITERATIONS 
       AND A TOTAL OF          5 INNER ITERATIONS.
    ------------------------------------------------

 NO OUTPUT CONTROL FOR STRESS PERIOD    3   TIME STEP   22
 
 SOLVING FOR HEAD 
                                                   Max.-Head-Change                         Max.-Flux-Residual
  Residual-Control   Outer-Iter.   Inner-Iter.     Column Row Layer    Maximum-Head-Change  Column Row Layer    Maximum-Flux-Residual          L2-NORM 
          0                 1           2             2    2     1       0.4783003515E-02       2    2    1         0.2496407217E+00      0.4936160908E+00
          0                 2           2             2    2     1      -0.4652566484E-03       2    2    1        -0.2496412750E-01      0.4919394424E-01
          0                 3           1             2    2     1       0.3168224456E-04       2    2    1         0.1747489150E-02      0.3428273419E-02

    ------------------------------------------------
       NWT REQUIRED            3 OUTER ITERATIONS 
       AND A TOTAL OF          5 INNER ITERATIONS.
    ------------------------------------------------

 NO OUTPUT CONTROL FOR STRESS PERIOD    3   TIME STEP   23
 
 SOLVING FOR HEAD 
                                                   Max.-Head-Change                         Max.-Flux-Residual
  Residual-Control   Outer-Iter.   Inner-Iter.     Column Row Layer    Maximum-Head-Change  Column Row Layer    Maximum-Flux-Residual          L2-NORM 
          0                 1           2             2    2     1       0.4754729257E-02       2    2    1         0.2481543635E+00      0.4876498957E+00
          0                 2           2             2    2     1      -0.4625063205E-03       2    2    1        -0.2481549076E-01      0.4861590763E-01
          0                 3           1             2    2     1       0.3149495767E-04       2    2    1         0.1737084590E-02      0.3389490762E-02

    ------------------------------------------------
       NWT REQUIRED            3 OUTER ITERATIONS 
       AND A TOTAL OF          5 INNER ITERATIONS.
    ------------------------------------------------

 NO OUTPUT CONTROL FOR STRESS PERIOD    3   TIME STEP   24
 
 SOLVING FOR HEAD 
                                                   Max.-Head-Change                         Max.-Flux-Residual
  Residual-Control   Outer-Iter.   Inner-Iter.     Column Row Layer    Maximum-Head-Change  Column Row Layer    Maximum-Flux-Residual          L2-NORM 
          0                 1           2             2    2     1       0.4726929154E-02       2    2    1         0.2466929324E+00      0.4821480205E+00
          0                 2           2             2    2     1      -0.4598021146E-03       2    2    1        -0.2466934672E-01      0.4808264004E-01
          0                 3           1             2    2     1       0.3131081142E-04       2    2    1         0.1726854515E-02      0.3353918015E-02

    ------------------------------------------------
       NWT REQUIRED            3 OUTER ITERATIONS 
       AND A TOTAL OF          5 INNER ITERATIONS.
    ------------------------------------------------

 NO OUTPUT CONTROL FOR STRESS PERIOD    3   TIME STEP   25
 
 SOLVING FOR HEAD 
                                                   Max.-Head-Change                         Max.-Flux-Residual
  Residual-Control   Outer-Iter.   Inner-Iter.     Column Row Layer    Maximum-Head-Change  Column Row Layer    Maximum-Flux-Residual          L2-NORM 
          0                 1           2             2    2     1       0.4699421599E-02       2    2    1         0.2452469708E+00      0.4770441481E+00
          0                 2           2             2    2     1      -0.4571263660E-03       2    2    1        -0.2452474967E-01      0.4758683128E-01
          0                 3           1             2    2     1       0.3112860330E-04       2    2    1         0.1716732723E-02      0.3320399761E-02

    ------------------------------------------------
       NWT REQUIRED            3 OUTER ITERATIONS 
       AND A TOTAL OF          5 INNER ITERATIONS.
    ------------------------------------------------

 NO OUTPUT CONTROL FOR STRESS PERIOD    3   TIME STEP   26
 
 SOLVING FOR HEAD 
                                                   Max.-Head-Change                         Max.-Flux-Residual
  Residual-Control   Outer-Iter.   Inner-Iter.     Column Row Layer    Maximum-Head-Change  Column Row Layer    Maximum-Flux-Residual          L2-NORM 
          0                 1           2             2    2     1       0.4672289189E-02       2    2    1         0.2438207350E+00      0.4723096784E+00
          0                 2           2             2    2     1      -0.4544871096E-03       2    2    1        -0.2438212524E-01      0.4712609710E-01
          0                 3           1             2    2     1       0.3094887977E-04       2    2    1         0.1706749022E-02      0.3289323165E-02

    ------------------------------------------------
       NWT REQUIRED            3 OUTER ITERATIONS 
       AND A TOTAL OF          5 INNER ITERATIONS.
    ------------------------------------------------

 NO OUTPUT CONTROL FOR STRESS PERIOD    3   TIME STEP   27
 
 SOLVING FOR HEAD 
                                                   Max.-Head-Change                         Max.-Flux-Residual
  Residual-Control   Outer-Iter.   Inner-Iter.     Column Row Layer    Maximum-Head-Change  Column Row Layer    Maximum-Flux-Residual          L2-NORM 
          0                 1           2             2    2     1       0.4645525634E-02       2    2    1         0.2424139500E+00      0.4678977169E+00
          0                 2           2             2    2     1      -0.4518837322E-03       2    2    1        -0.2424144588E-01      0.4669644227E-01
          0                 3           1             2    2     1       0.3077159918E-04       2    2    1         0.1696901457E-02      0.3260302389E-02

    ------------------------------------------------
       NWT REQUIRED            3 OUTER ITERATIONS 
       AND A TOTAL OF          5 INNER ITERATIONS.
    ------------------------------------------------

 NO OUTPUT CONTROL FOR STRESS PERIOD    3   TIME STEP   28
 
 SOLVING FOR HEAD 
                                                   Max.-Head-Change                         Max.-Flux-Residual
  Residual-Control   Outer-Iter.   Inner-Iter.     Column Row Layer    Maximum-Head-Change  Column Row Layer    Maximum-Flux-Residual          L2-NORM 
          0                 1           2             2    2     1       0.4619038651E-02       2    2    1         0.2410217318E+00      0.4637718241E+00
          0                 2           2             2    2     1      -0.4493072587E-03       2    2    1        -0.2410222323E-01      0.4629376131E-01
          0                 3           1             2    2     1       0.3059615139E-04       2    2    1         0.1687155890E-02      0.3232867274E-02

    ------------------------------------------------
       NWT REQUIRED            3 OUTER ITERATIONS 
       AND A TOTAL OF          5 INNER ITERATIONS.
    ------------------------------------------------

 NO OUTPUT CONTROL FOR STRESS PERIOD    3   TIME STEP   29
 
 SOLVING FOR HEAD 
                                                   Max.-Head-Change                         Max.-Flux-Residual
  Residual-Control   Outer-Iter.   Inner-Iter.     Column Row Layer    Maximum-Head-Change  Column Row Layer    Maximum-Flux-Residual          L2-NORM 
          0                 1           2             4   13     1       0.1233764695E-01       4   13    1         0.7106705653E+00      0.1463898131E+01
          0                 2           2             4   13     1      -0.1186832481E-02       4   13    1        -0.7028982513E-01      0.1429497875E+00
          0                 3           1             4   13     1       0.7957547730E-04       4   13    1         0.4845459470E-02      0.9686432290E-02

    ------------------------------------------------
       NWT REQUIRED            3 OUTER ITERATIONS 
       AND A TOTAL OF          5 INNER ITERATIONS.
    ------------------------------------------------

 NO OUTPUT CONTROL FOR STRESS PERIOD    3   TIME STEP   30



 STREAM LISTING     PERIOD      3   STEP       30

 LAYER ROW COL. STREAM  RCH.  FLOW INTO     FLOW TO   FLOW OUT OF   OVRLND.     DIRECT     STREAM       STREAM     STREAM     STREAM   STREAMBED  STREAMBED
                SEG.NO.  NO.  STRM. RCH.    AQUIFER    STRM. RCH.    RUNOFF     PRECIP       ET          HEAD       DEPTH      WIDTH   CONDCTNC.   GRADIENT

   1    1    1     1     1    7.2502E+01  4.1419E-01   7.2087E+01  0.000E+00  0.000E+00  0.000E+00  1.09472E+03  1.670E+00  1.971E+01  8.868E-02  1.557E+00
   1    2    2     1     2    7.2087E+01  6.4160E-01   7.1446E+01  0.000E+00  0.000E+00  0.000E+00  1.08972E+03  1.665E+00  1.965E+01  1.375E-01  1.555E+00
   1    3    3     1     3    7.1446E+01  5.4733E-01   7.0899E+01  0.000E+00  0.000E+00  0.000E+00  1.08408E+03  1.658E+00  1.958E+01  1.175E-01  1.553E+00
   1    3    4     1     4    7.0899E+01  5.0414E-01   7.0394E+01  0.000E+00  0.000E+00  0.000E+00  1.07906E+03  1.652E+00  1.953E+01  1.084E-01  1.551E+00
   1    4    5     2     1    6.8394E+01  4.0598E-01   6.7988E+01  0.000E+00  0.000E+00  0.000E+00  1.07414E+03  2.205E+00  1.200E+01  7.800E-02  1.735E+00
   1    5    6     2     2    6.7988E+01  3.1187E-01   6.7677E+01  0.000E+00  0.000E+00  0.000E+00  1.06871E+03  2.198E+00  1.200E+01  6.000E-02  1.733E+00
   1    6    6     2     3    6.7677E+01  3.1151E-01   6.7365E+01  0.000E+00  0.000E+00  0.000E+00  1.06398E+03  2.192E+00  1.200E+01  6.000E-02  1.731E+00
   1    7    6     2     4    6.7365E+01  3.1115E-01   6.7054E+01  0.000E+00  0.000E+00  0.000E+00  1.05926E+03  2.186E+00  1.200E+01  6.000E-02  1.729E+00
   1    8    6     2     5    6.7054E+01  3.1078E-01   6.6743E+01  0.000E+00  0.000E+00  0.000E+00  1.05454E+03  2.180E+00  1.200E+01  6.000E-02  1.727E+00
   1    3    5     3     1    2.0000E+00  2.8252E-01   1.7175E+00  0.000E+00  0.000E+00  0.000E+00  1.07555E+03  1.909E+00  9.636E+00  7.227E-02  1.955E+00
   1    3    6     3     2    1.7175E+00  2.4905E-01   1.4684E+00  0.000E+00  0.000E+00  0.000E+00  1.07264E+03  1.727E+00  8.909E+00  6.682E-02  1.864E+00
   1    3    7     3     3    1.4684E+00  1.9718E-01   1.2712E+00  0.000E+00  0.000E+00  0.000E+00  1.06987E+03  1.555E+00  8.218E+00  5.547E-02  1.777E+00
   1    4    8     3     4    1.2712E+00  2.2567E-01   1.0456E+00  0.000E+00  0.000E+00  0.000E+00  1.06682E+03  1.364E+00  7.455E+00  6.709E-02  1.682E+00
   1    5    8     3     5    1.0456E+00  1.5790E-01   8.8768E-01  0.000E+00  0.000E+00  0.000E+00  1.06362E+03  1.164E+00  6.655E+00  4.991E-02  1.582E+00
   1    6    8     3     6    8.8768E-01  5.5980E-02   8.3170E-01  0.000E+00  0.000E+00  0.000E+00  1.06158E+03  1.036E+00  6.145E+00  1.844E-02  1.518E+00
   1    5   10     4     1    1.0000E+01  9.0919E-02   9.9091E+00  0.000E+00  0.000E+00  0.000E+00  1.07836E+03  6.368E-01  1.000E+01  2.500E-02  1.212E+00
   1    5    9     4     2    9.9091E+00  1.8158E-01   9.7275E+00  0.000E+00  0.000E+00  0.000E+00  1.07154E+03  6.315E-01  1.000E+01  5.000E-02  1.211E+00
   1    6    8     4     3    9.7275E+00  1.2689E-01   9.6006E+00  0.000E+00  0.000E+00  0.000E+00  1.06381E+03  6.256E-01  1.000E+01  3.500E-02  1.209E+00
   1    6    8     5     1    1.0432E+01  2.2686E-01   1.0205E+01  0.000E+00  0.000E+00  0.000E+00  1.05868E+03  6.790E-01  1.542E+01  6.166E-02  1.226E+00
   1    7    7     5     2    1.0205E+01  2.7894E-01   9.9265E+00  0.000E+00  0.000E+00  0.000E+00  1.05417E+03  6.732E-01  1.519E+01  7.594E-02  1.224E+00
   1    8    7     5     3    9.9265E+00  1.9221E-01   9.7343E+00  0.000E+00  0.000E+00  0.000E+00  1.04992E+03  6.676E-01  1.497E+01  5.241E-02  1.223E+00
   1    8    6     5     4    9.7343E+00  1.3577E-01   9.5985E+00  0.000E+00  0.000E+00  0.000E+00  1.04691E+03  6.637E-01  1.482E+01  3.706E-02  1.221E+00
   1    9    6     6     1    7.6342E+01  3.2296E-01   7.6019E+01  0.000E+00  0.000E+00  0.000E+00  1.04511E+03  2.383E+00  1.200E+01  6.000E-02  1.794E+00
   1   10    7     6     2    7.6019E+01  3.2260E-01   7.5696E+01  0.000E+00  0.000E+00  0.000E+00  1.04056E+03  2.377E+00  1.200E+01  6.000E-02  1.792E+00
   1   11    7     6     3    7.5696E+01  3.2224E-01   7.5374E+01  0.000E+00  0.000E+00  0.000E+00  1.03601E+03  2.371E+00  1.200E+01  6.000E-02  1.790E+00
   1   12    7     6     4    7.5374E+01  3.2187E-01   7.5052E+01  0.000E+00  0.000E+00  0.000E+00  1.03146E+03  2.365E+00  1.200E+01  6.000E-02  1.788E+00
   1   13    7     6     5    7.5052E+01  2.7035E-02   7.5025E+01  0.000E+00  0.000E+00  0.000E+00  1.02827E+03  2.361E+00  1.200E+01  2.400E-02  3.755E-01
   1   14    9     7     1    1.5000E+02  1.3312E+00   1.4867E+02  0.000E+00  0.000E+00  0.000E+00  1.03987E+03  2.288E+00  5.529E+01  5.593E-01  7.933E-01
   1   13    8     7     2    1.4867E+02  1.8193E+00   1.4685E+02  0.000E+00  0.000E+00  0.000E+00  1.03478E+03  2.279E+00  5.526E+01  6.148E-01  9.864E-01
   1   13    7     7     3    1.4685E+02  1.4219E+00   1.4543E+02  0.000E+00  0.000E+00  0.000E+00  1.02969E+03  2.271E+00  5.522E+01  5.585E-01  8.487E-01
   1   13    6     8     1    2.2045E+02  1.0869E+00   2.1937E+02  0.000E+00  0.000E+00  0.000E+00  1.02513E+03  3.251E+00  4.715E+01  4.804E-01  7.541E-01
   1   13    5     8     2    2.1937E+02  2.5867E-01   2.1911E+02  0.000E+00  0.000E+00  0.000E+00  1.01887E+03  3.248E+00  4.709E+01  4.799E-01  1.797E-01
   1   13    4     8     3    2.1911E+02 -1.9098E+00   2.2102E+02  0.000E+00  0.000E+00  0.000E+00  1.01263E+03  3.252E+00  4.716E+01  4.806E+00 -1.325E-01
   1   13    3     8     4    2.2102E+02 -3.1179E+00   2.2413E+02  0.000E+00  0.000E+00  0.000E+00  1.00639E+03  3.266E+00  4.736E+01  4.826E+00 -2.154E-01
   1   13    2     8     5    2.2413E+02 -1.9270E+00   2.2606E+02  0.000E+00  0.000E+00  0.000E+00  1.00015E+03  3.280E+00  4.756E+01  4.846E+00 -1.325E-01
   1   13    1     8     6    2.2606E+02 -1.5653E+00   2.2763E+02  0.000E+00  0.000E+00  0.000E+00  9.95164E+02  3.289E+00  4.770E+01  2.916E+00 -1.789E-01





UNSATURATED ZONE PACKAGE VOLUMETRIC BUDGET FOR  TIME STEP    30 STRESS PERIOD    3
  ------------------------------------------------------------------------------



     CUMULATIVE VOLUMES      L**3       RATES FOR THIS TIME STEP      L**3/T
     ------------------                 ------------------------

           IN:                                      IN:
           ---                                      ---
        INFILTRATION =     4531073.7455          INFILTRATION =           0.8475

          OUT:                                     OUT:
          ----                                     ----
              UZF ET =     3944959.1553                UZF ET =           0.7500
        UZF RECHARGE =       73224.0000          UZF RECHARGE =       0.0000E+00

            IN - OUT =      512890.5902              IN - OUT =       9.7500E-02

          STORAGE:                                 STORAGE:
          --------                                 --------
      STORAGE CHANGE =      512890.6306        STORAGE CHANGE =       9.7500E-02

 PERCENT DISCREPANCY IS DIFFERENCE BETWEEN IN-OUT MINUS CHANGE IN STORAGE
 DIVIDED BY THE AVERAGE OF IN AND OUT TIMES 100

 PERCENT DISCREPANCY =          -0.00     PERCENT DISCREPANCY =           0.00






1
  VOLUMETRIC BUDGET FOR AGRICULTURAL FIELDS AT  END OF TIME STEP   30, STRESS PERIOD   3
  ------------------------------------------------------------------------------

     CUMULATIVE VOLUMES      L**3       RATES FOR THIS TIME STEP      L**3/T
     ------------------                 ------------------------

           IN:                                      IN:
           ---                                      ---
           AG WELLS      =           0.0000             AG WELLS      =           0.0000
      DIVERSION SEGMENTS =           0.0000        DIVERSION SEGMENTS =           0.0000
           GW IRRIGATION =           0.0000             GW IRRIGATION =           0.0000
           SW IRRIGATION =           0.0000             SW IRRIGATION =           0.0000
        SYSTEM LOSSES GW =           0.0000          SYSTEM LOSSES GW =           0.0000
        SYSTEM LOSSES SW =           0.0000          SYSTEM LOSSES SW =           0.0000

                TOTAL IN =           0.0000                  TOTAL IN =           0.0000

          OUT:                                     OUT:
          ----                                     ----
           AG WELLS      =           0.0000             AG WELLS      =           0.0000
      DIVERSION SEGMENTS =           0.0000        DIVERSION SEGMENTS =           0.0000
           GW IRRIGATION =           0.0000             GW IRRIGATION =           0.0000
           SW IRRIGATION =           0.0000             SW IRRIGATION =           0.0000
        SYSTEM LOSSES GW =           0.0000          SYSTEM LOSSES GW =           0.0000
        SYSTEM LOSSES SW =           0.0000          SYSTEM LOSSES SW =           0.0000

               TOTAL OUT =           0.0000                 TOTAL OUT =           0.0000

                IN - OUT =           0.0000                  IN - OUT =           0.0000

     PERCENT DISCREPANCY =           0.00         PERCENT DISCREPANCY =           0.00



1
  VOLUMETRIC BUDGET FOR ENTIRE MODEL AT END OF TIME STEP   30, STRESS PERIOD   3
  ------------------------------------------------------------------------------

     CUMULATIVE VOLUMES      L**3       RATES FOR THIS TIME STEP      L**3/T
     ------------------                 ------------------------

           IN:                                      IN:
           ---                                      ---
             STORAGE     =     3047021.5000               STORAGE     =           0.4724
       CONSTANT HEAD     =           0.0000         CONSTANT HEAD     =           0.0000
     HEAD DEP BOUNDS     =     1525869.2500       HEAD DEP BOUNDS     =           0.2854
      STREAM LEAKAGE     =    63536332.0000        STREAM LEAKAGE     =          13.3947
        UZF RECHARGE     =       73223.9531          UZF RECHARGE     =           0.0000
               GW ET     =           0.0000                 GW ET     =           0.0000
     SURFACE LEAKAGE     =           0.0000       SURFACE LEAKAGE     =           0.0000
           AG WELLS      =           0.0000             AG WELLS      =           0.0000

                TOTAL IN =    68182448.0000                  TOTAL IN =          14.1525

          OUT:                                     OUT:
          ----                                     ----
             STORAGE     =    11250392.0000               STORAGE     =           5.3403
       CONSTANT HEAD     =           0.0000         CONSTANT HEAD     =           0.0000
     HEAD DEP BOUNDS     =     1549889.6250       HEAD DEP BOUNDS     =           0.2926
      STREAM LEAKAGE     =    55383876.0000        STREAM LEAKAGE     =           8.5200
        UZF RECHARGE     =           0.0000          UZF RECHARGE     =           0.0000
               GW ET     =         620.0454                 GW ET     =       9.2745E-04
     SURFACE LEAKAGE     =           0.0000       SURFACE LEAKAGE     =           0.0000
           AG WELLS      =           0.0000             AG WELLS      =           0.0000

               TOTAL OUT =    68184784.0000                 TOTAL OUT =          14.1539

                IN - OUT =       -2336.0000                  IN - OUT =      -1.3819E-03

     PERCENT DISCREPANCY =          -0.00         PERCENT DISCREPANCY =          -0.01






         TIME SUMMARY AT END OF TIME STEP   30 IN STRESS PERIOD    3
                    SECONDS     MINUTES      HOURS       DAYS        YEARS
                    -----------------------------------------------------------
   TIME STEP LENGTH  87667.      1461.1      24.352      1.0147     2.77799E-03
 STRESS PERIOD TIME 2.63000E+06  43833.      730.56      30.440     8.33397E-02
         TOTAL TIME 5.34640E+06  89107.      1485.1      61.880     0.16942    
1
1
                            STRESS PERIOD NO.    4, LENGTH =   2630000.    
                            -----------------------------------------------

                              NUMBER OF TIME STEPS =    30

                               MULTIPLIER FOR DELT =     1.000

                            INITIAL TIME STEP SIZE =   87666.66    

 REUSING NON-PARAMETER GHB CELLS FROM LAST STRESS PERIOD

      2 GHB CELLS

 REUSING STREAM SEGMENT DATA FROM LAST STRESS PERIOD



            AREAL INFILTRATION RATE
 READING ON UNIT   19 WITH FORMAT: (FREE)              

            1           2           3           4           5           6           7           8           9          10
 ........................................................................................................................
   1   1.0000E-10  2.0000E-10   0.000       0.000       0.000       0.000       0.000       0.000       0.000       0.000    
   2   2.0000E-10  1.0000E-10  2.0000E-10   0.000       0.000      8.0000E-10  8.0000E-10  5.0000E-10   0.000       0.000    
   3    0.000      5.0000E-10  1.0000E-10  1.0000E-10  8.0000E-10  8.0000E-10  5.0000E-10  5.0000E-10   0.000       0.000    
   4   8.0000E-10  5.0000E-10  1.0000E-10  1.0000E-10  1.0000E-10  1.0000E-10  1.0000E-10  1.0000E-10  2.0000E-10   0.000    
   5   8.0000E-10  5.0000E-10  1.0000E-10  1.0000E-10  1.0000E-10  1.0000E-10  1.0000E-10  1.0000E-10  1.0000E-10  1.0000E-10
   6   8.0000E-10  5.0000E-10  5.0000E-10  2.0000E-10  2.0000E-10  1.0000E-10  1.0000E-10  1.0000E-10  1.0000E-10  5.0000E-10
   7   8.0000E-10  5.0000E-10  5.0000E-10  2.0000E-10  2.0000E-10  1.0000E-10  1.0000E-10  2.0000E-10  2.0000E-10   0.000    
   8    0.000      5.0000E-10  5.0000E-10  2.0000E-10  2.0000E-10  1.0000E-10  1.0000E-10  2.0000E-10  5.0000E-10   0.000    
   9    0.000      5.0000E-10  5.0000E-10  2.0000E-10  2.0000E-10  1.0000E-10  1.0000E-10  2.0000E-10  5.0000E-10   0.000    
  10    0.000      5.0000E-10  5.0000E-10  2.0000E-10  2.0000E-10  1.0000E-10  1.0000E-10  2.0000E-10  5.0000E-10  8.0000E-10
  11    0.000      1.0000E-10  1.0000E-10  1.0000E-10  1.0000E-10  1.0000E-10  1.0000E-10  2.0000E-10  5.0000E-10   0.000    
  12   1.0000E-10  1.0000E-10  1.0000E-10  1.0000E-10  1.0000E-10  1.0000E-10  1.0000E-10  1.0000E-10  2.0000E-10   0.000    
  13   1.0000E-10  1.0000E-10  2.0000E-10  2.0000E-10  2.0000E-10  2.0000E-10  2.0000E-10  1.0000E-10  1.0000E-10   0.000    
  14    0.000      2.0000E-10  5.0000E-10  5.0000E-10  5.0000E-10  5.0000E-10  5.0000E-10  2.0000E-10  1.0000E-10   0.000    
  15    0.000       0.000      8.0000E-10  8.0000E-10  8.0000E-10  8.0000E-10   0.000       0.000       0.000       0.000    

                  ET RATE =  5.000000E-10

 USING ET EXTINCTION DEPTH FROM PREVIOUS STRESS PERIOD. CURRENT PERIOD IS:       4

 USING EXTINCTION WATER CONTENT FROM PREVIOUS STRESS PERIOD. CURRENT PERIOD IS:       4

 USING AIR ENTRY PRESSURE FROM PREVIOUS STRESS PERIOD. CURRENT PERIOD IS:       4

 USING ROOT PRESSURE HEAD FROM PREVIOUS STRESS PERIOD. CURRENT PERIOD IS:       4

 USING ROOT ACTIVITY FROM PREVIOUS STRESS PERIOD. CURRENT PERIOD IS:       4

 PROCESSING AG STRESS PERIOD DATA

 READING AG STRESS PERIOD DATA

 READING IRRIGATION WELL

 END PROCESSING AG STRESS PERIOD DATA OPTIONS
 
 SOLVING FOR HEAD 
                                                   Max.-Head-Change                         Max.-Flux-Residual
  Residual-Control   Outer-Iter.   Inner-Iter.     Column Row Layer    Maximum-Head-Change  Column Row Layer    Maximum-Flux-Residual          L2-NORM 
          0                 1           2             2   13     1       0.1291412078E-01       4   13    1         0.7419829281E+00      0.1544938060E+01
          0                 2           2             4   13     1      -0.1238783635E-02       4   13    1        -0.7337782499E-01      0.1509475752E+00
          0                 3           1             4   13     1       0.8310876464E-04       4   13    1         0.5058446806E-02      0.1035433779E-01

    ------------------------------------------------
       NWT REQUIRED            3 OUTER ITERATIONS 
       AND A TOTAL OF          5 INNER ITERATIONS.
    ------------------------------------------------

 NO OUTPUT CONTROL FOR STRESS PERIOD    4   TIME STEP    1
 
 SOLVING FOR HEAD 
                                                   Max.-Head-Change                         Max.-Flux-Residual
  Residual-Control   Outer-Iter.   Inner-Iter.     Column Row Layer    Maximum-Head-Change  Column Row Layer    Maximum-Flux-Residual          L2-NORM 
          0                 1           2             2   13     1       0.1188955969E-01       2   13    1         0.6731431908E+00      0.1450616462E+01
          0                 2           2             4   13     1      -0.1118338741E-02       4   13    1        -0.6619701266E-01      0.1417640058E+00
          0                 3           1             4   13     1       0.7494641554E-04       4   13    1         0.4561057022E-02      0.9614717009E-02

    ------------------------------------------------
       NWT REQUIRED            3 OUTER ITERATIONS 
       AND A TOTAL OF          5 INNER ITERATIONS.
    ------------------------------------------------

 NO OUTPUT CONTROL FOR STRESS PERIOD    4   TIME STEP    2
 
 SOLVING FOR HEAD 
                                                   Max.-Head-Change                         Max.-Flux-Residual
  Residual-Control   Outer-Iter.   Inner-Iter.     Column Row Layer    Maximum-Head-Change  Column Row Layer    Maximum-Flux-Residual          L2-NORM 
          0                 1           2             2   13     1       0.1094717874E-01       2   13    1         0.6197105550E+00      0.1366415956E+01
          0                 2           2             2   13     1      -0.1014816023E-02       4   13    1        -0.5976411908E-01      0.1336868793E+00
          0                 3           1             4   13     1       0.6771493970E-04       4   13    1         0.4117697884E-02      0.9083453569E-02

    ------------------------------------------------
       NWT REQUIRED            3 OUTER ITERATIONS 
       AND A TOTAL OF          5 INNER ITERATIONS.
    ------------------------------------------------

 NO OUTPUT CONTROL FOR STRESS PERIOD    4   TIME STEP    3
 
 SOLVING FOR HEAD 
                                                   Max.-Head-Change                         Max.-Flux-Residual
  Residual-Control   Outer-Iter.   Inner-Iter.     Column Row Layer    Maximum-Head-Change  Column Row Layer    Maximum-Flux-Residual          L2-NORM 
          0                 1           2             2   13     1       0.1008039878E-01       2   13    1         0.5705667495E+00      0.1291315612E+01
          0                 2           2             2   13     1      -0.9348989746E-03       2   13    1        -0.5439353912E-01      0.1264890339E+00
          0                 3           1             4   13     1       0.6121613531E-04       4   13    1         0.3719437842E-02      0.8608820741E-02

    ------------------------------------------------
       NWT REQUIRED            3 OUTER ITERATIONS 
       AND A TOTAL OF          5 INNER ITERATIONS.
    ------------------------------------------------

 NO OUTPUT CONTROL FOR STRESS PERIOD    4   TIME STEP    4
 
 SOLVING FOR HEAD 
                                                   Max.-Head-Change                         Max.-Flux-Residual
  Residual-Control   Outer-Iter.   Inner-Iter.     Column Row Layer    Maximum-Head-Change  Column Row Layer    Maximum-Flux-Residual          L2-NORM 
          0                 1           2             2   13     1       0.9283186994E-02       2   13    1         0.5253694967E+00      0.1224400863E+01
          0                 2           2             2   13     1      -0.8613135316E-03       2   13    1        -0.5010485687E-01      0.1200815214E+00
          0                 3           1             4   13     1       0.5540141963E-04       4   13    1         0.3363234146E-02      0.8187081237E-02

    ------------------------------------------------
       NWT REQUIRED            3 OUTER ITERATIONS 
       AND A TOTAL OF          5 INNER ITERATIONS.
    ------------------------------------------------

 NO OUTPUT CONTROL FOR STRESS PERIOD    4   TIME STEP    5
 
 SOLVING FOR HEAD 
                                                   Max.-Head-Change                         Max.-Flux-Residual
  Residual-Control   Outer-Iter.   Inner-Iter.     Column Row Layer    Maximum-Head-Change  Column Row Layer    Maximum-Flux-Residual          L2-NORM 
          0                 1           2             2   13     1       0.8549974915E-02       2   13    1         0.4838029440E+00      0.1164812224E+01
          0                 2           2             2   13     1      -0.7935824188E-03       2   13    1        -0.4615762446E-01      0.1143791499E+00
          0                 3           1             2    2     1       0.5140191434E-04       4   13    1         0.3042286572E-02      0.7811464721E-02

    ------------------------------------------------
       NWT REQUIRED            3 OUTER ITERATIONS 
       AND A TOTAL OF          5 INNER ITERATIONS.
    ------------------------------------------------

 NO OUTPUT CONTROL FOR STRESS PERIOD    4   TIME STEP    6
 
 SOLVING FOR HEAD 
                                                   Max.-Head-Change                         Max.-Flux-Residual
  Residual-Control   Outer-Iter.   Inner-Iter.     Column Row Layer    Maximum-Head-Change  Column Row Layer    Maximum-Flux-Residual          L2-NORM 
          0                 1           2             2   13     1       0.7875627088E-02       2   13    1         0.4455757370E+00      0.1111787265E+01
          0                 2           2             2    2     1      -0.7501961950E-03       2   13    1        -0.4252480749E-01      0.1093098227E+00
          0                 3           1             2    2     1       0.5108555791E-04       2    2    1         0.2818321109E-02      0.7479073570E-02

    ------------------------------------------------
       NWT REQUIRED            3 OUTER ITERATIONS 
       AND A TOTAL OF          5 INNER ITERATIONS.
    ------------------------------------------------

 NO OUTPUT CONTROL FOR STRESS PERIOD    4   TIME STEP    7
 
 SOLVING FOR HEAD 
                                                   Max.-Head-Change                         Max.-Flux-Residual
  Residual-Control   Outer-Iter.   Inner-Iter.     Column Row Layer    Maximum-Head-Change  Column Row Layer    Maximum-Flux-Residual          L2-NORM 
          0                 1           2             2    2     1       0.7665179640E-02       2   13    1         0.4104181933E+00      0.1064627355E+01
          0                 2           2             2    2     1      -0.7456151658E-03       2    2    1        -0.4001410346E-01      0.1048038506E+00
          0                 3           1             2    2     1       0.5077360716E-04       2    2    1         0.2800987080E-02      0.7181864194E-02

    ------------------------------------------------
       NWT REQUIRED            3 OUTER ITERATIONS 
       AND A TOTAL OF          5 INNER ITERATIONS.
    ------------------------------------------------

 NO OUTPUT CONTROL FOR STRESS PERIOD    4   TIME STEP    8
 
 SOLVING FOR HEAD 
                                                   Max.-Head-Change                         Max.-Flux-Residual
  Residual-Control   Outer-Iter.   Inner-Iter.     Column Row Layer    Maximum-Head-Change  Column Row Layer    Maximum-Flux-Residual          L2-NORM 
          0                 1           2             2    2     1       0.7618653017E-02       2    2    1         0.3976932327E+00      0.1022691401E+01
          0                 2           2             2    2     1      -0.7410893556E-03       2    2    1        -0.3976946691E-01      0.1007998258E+00
          0                 3           1             2    2     1       0.5046541667E-04       2    2    1         0.2783862523E-02      0.6919858343E-02

    ------------------------------------------------
       NWT REQUIRED            3 OUTER ITERATIONS 
       AND A TOTAL OF          5 INNER ITERATIONS.
    ------------------------------------------------

 NO OUTPUT CONTROL FOR STRESS PERIOD    4   TIME STEP    9
 
 SOLVING FOR HEAD 
                                                   Max.-Head-Change                         Max.-Flux-Residual
  Residual-Control   Outer-Iter.   Inner-Iter.     Column Row Layer    Maximum-Head-Change  Column Row Layer    Maximum-Flux-Residual          L2-NORM 
          0                 1           2             2    2     1       0.7572771882E-02       2    2    1         0.3952808855E+00      0.9853861600E+00
          0                 2           2             2    2     1      -0.7366263344E-03       2    2    1        -0.3952822971E-01      0.9723748214E-01
          0                 3           1             2    2     1       0.5016150120E-04       2    2    1         0.2766975919E-02      0.6686492975E-02

    ------------------------------------------------
       NWT REQUIRED            3 OUTER ITERATIONS 
       AND A TOTAL OF          5 INNER ITERATIONS.
    ------------------------------------------------

 NO OUTPUT CONTROL FOR STRESS PERIOD    4   TIME STEP   10
 
 SOLVING FOR HEAD 
                                                   Max.-Head-Change                         Max.-Flux-Residual
  Residual-Control   Outer-Iter.   Inner-Iter.     Column Row Layer    Maximum-Head-Change  Column Row Layer    Maximum-Flux-Residual          L2-NORM 
          0                 1           2             2    2     1       0.7527438292E-02       2    2    1         0.3928974452E+00      0.9522079556E+00
          0                 2           2             2    2     1      -0.7322165762E-03       2    2    1        -0.3928988327E-01      0.9407284951E-01
          0                 3           1             2    2     1       0.4986121394E-04       2    2    1         0.2750291704E-02      0.6478678436E-02

    ------------------------------------------------
       NWT REQUIRED            3 OUTER ITERATIONS 
       AND A TOTAL OF          5 INNER ITERATIONS.
    ------------------------------------------------

 NO OUTPUT CONTROL FOR STRESS PERIOD    4   TIME STEP   11
 
 SOLVING FOR HEAD 
                                                   Max.-Head-Change                         Max.-Flux-Residual
  Residual-Control   Outer-Iter.   Inner-Iter.     Column Row Layer    Maximum-Head-Change  Column Row Layer    Maximum-Flux-Residual          L2-NORM 
          0                 1           2             2    2     1       0.7482730438E-02       2    2    1         0.3905469552E+00      0.9226722516E+00
          0                 2           2             2    2     1      -0.7278676856E-03       2    2    1        -0.3905483191E-01      0.9125238079E-01
          0                 3           1             2    2     1       0.4956507107E-04       2    2    1         0.2733838133E-02      0.6293994993E-02

    ------------------------------------------------
       NWT REQUIRED            3 OUTER ITERATIONS 
       AND A TOTAL OF          5 INNER ITERATIONS.
    ------------------------------------------------

 NO OUTPUT CONTROL FOR STRESS PERIOD    4   TIME STEP   12
 
 SOLVING FOR HEAD 
                                                   Max.-Head-Change                         Max.-Flux-Residual
  Residual-Control   Outer-Iter.   Inner-Iter.     Column Row Layer    Maximum-Head-Change  Column Row Layer    Maximum-Flux-Residual          L2-NORM 
          0                 1           2             2    2     1       0.7438639107E-02       2    2    1         0.3882289088E+00      0.8963546897E+00
          0                 2           2             2    2     1      -0.7235787660E-03       2    2    1        -0.3882302495E-01      0.8873947831E-01
          0                 3           1             2    2     1       0.4927301152E-04       2    2    1         0.2717611634E-02      0.6128345566E-02

    ------------------------------------------------
       NWT REQUIRED            3 OUTER ITERATIONS 
       AND A TOTAL OF          5 INNER ITERATIONS.
    ------------------------------------------------

 NO OUTPUT CONTROL FOR STRESS PERIOD    4   TIME STEP   13
 
 SOLVING FOR HEAD 
                                                   Max.-Head-Change                         Max.-Flux-Residual
  Residual-Control   Outer-Iter.   Inner-Iter.     Column Row Layer    Maximum-Head-Change  Column Row Layer    Maximum-Flux-Residual          L2-NORM 
          0                 1           2             2    2     1       0.7395066856E-02       2    2    1         0.3859382668E+00      0.8728755287E+00
          0                 2           2             2    2     1      -0.7193403400E-03       2    2    1        -0.3859395849E-01      0.8649868429E-01
          0                 3           1             2    2     1       0.4898439107E-04       2    2    1         0.2701577017E-02      0.5982861611E-02

    ------------------------------------------------
       NWT REQUIRED            3 OUTER ITERATIONS 
       AND A TOTAL OF          5 INNER ITERATIONS.
    ------------------------------------------------

 NO OUTPUT CONTROL FOR STRESS PERIOD    4   TIME STEP   14
 
 SOLVING FOR HEAD 
                                                   Max.-Head-Change                         Max.-Flux-Residual
  Residual-Control   Outer-Iter.   Inner-Iter.     Column Row Layer    Maximum-Head-Change  Column Row Layer    Maximum-Flux-Residual          L2-NORM 
          0                 1           2             2    2     1       0.7352092727E-02       2    2    1         0.3836791000E+00      0.8518993382E+00
          0                 2           2             2    2     1      -0.7151600960E-03       2    2    1        -0.3836803961E-01      0.8449561466E-01
          0                 3           1             2    2     1       0.4869973229E-04       2    2    1         0.2685762706E-02      0.5850895979E-02

    ------------------------------------------------
       NWT REQUIRED            3 OUTER ITERATIONS 
       AND A TOTAL OF          5 INNER ITERATIONS.
    ------------------------------------------------

 NO OUTPUT CONTROL FOR STRESS PERIOD    4   TIME STEP   15
 
 SOLVING FOR HEAD 
                                                   Max.-Head-Change                         Max.-Flux-Residual
  Residual-Control   Outer-Iter.   Inner-Iter.     Column Row Layer    Maximum-Head-Change  Column Row Layer    Maximum-Flux-Residual          L2-NORM 
          0                 1           2             2    2     1       0.7309707230E-02       2    2    1         0.3814509450E+00      0.8331304374E+00
          0                 2           2             2    2     1      -0.7110371101E-03       2    2    1        -0.3814522195E-01      0.8270111232E-01
          0                 3           1             2    2     1       0.4841897223E-04       2    2    1         0.2670165472E-02      0.5733030289E-02

    ------------------------------------------------
       NWT REQUIRED            3 OUTER ITERATIONS 
       AND A TOTAL OF          5 INNER ITERATIONS.
    ------------------------------------------------

 NO OUTPUT CONTROL FOR STRESS PERIOD    4   TIME STEP   16
 
 SOLVING FOR HEAD 
                                                   Max.-Head-Change                         Max.-Flux-Residual
  Residual-Control   Outer-Iter.   Inner-Iter.     Column Row Layer    Maximum-Head-Change  Column Row Layer    Maximum-Flux-Residual          L2-NORM 
          0                 1           2             2    2     1       0.7267901031E-02       2    2    1         0.3792533099E+00      0.8162929267E+00
          0                 2           2             2    2     1      -0.7069704754E-03       2    2    1        -0.3792545636E-01      0.8109084788E-01
          0                 3           1             2    2     1       0.4814204983E-04       2    2    1         0.2654781905E-02      0.5626816912E-02

    ------------------------------------------------
       NWT REQUIRED            3 OUTER ITERATIONS 
       AND A TOTAL OF          5 INNER ITERATIONS.
    ------------------------------------------------

 NO OUTPUT CONTROL FOR STRESS PERIOD    4   TIME STEP   17
 
 SOLVING FOR HEAD 
                                                   Max.-Head-Change                         Max.-Flux-Residual
  Residual-Control   Outer-Iter.   Inner-Iter.     Column Row Layer    Maximum-Head-Change  Column Row Layer    Maximum-Flux-Residual          L2-NORM 
          0                 1           2             2    2     1       0.7226578003E-02       2    2    1         0.3770811483E+00      0.8011506912E+00
          0                 2           2             2    2     1      -0.7029508402E-03       2    2    1        -0.3770823813E-01      0.7964098574E-01
          0                 3           1             2    2     1       0.4786832772E-04       2    2    1         0.2639576631E-02      0.5531315593E-02

    ------------------------------------------------
       NWT REQUIRED            3 OUTER ITERATIONS 
       AND A TOTAL OF          5 INNER ITERATIONS.
    ------------------------------------------------

 NO OUTPUT CONTROL FOR STRESS PERIOD    4   TIME STEP   18
 
 SOLVING FOR HEAD 
                                                   Max.-Head-Change                         Max.-Flux-Residual
  Residual-Control   Outer-Iter.   Inner-Iter.     Column Row Layer    Maximum-Head-Change  Column Row Layer    Maximum-Flux-Residual          L2-NORM 
          0                 1           2             2    2     1       0.7185817090E-02       2    2    1         0.3749386008E+00      0.7875070108E+00
          0                 2           2             2    2     1      -0.6989858848E-03       2    2    1        -0.3749398137E-01      0.7833273815E-01
          0                 3           1             2    2     1       0.4759832991E-04       2    2    1         0.2624578687E-02      0.5445000809E-02

    ------------------------------------------------
       NWT REQUIRED            3 OUTER ITERATIONS 
       AND A TOTAL OF          5 INNER ITERATIONS.
    ------------------------------------------------

 NO OUTPUT CONTROL FOR STRESS PERIOD    4   TIME STEP   19
 
 SOLVING FOR HEAD 
                                                   Max.-Head-Change                         Max.-Flux-Residual
  Residual-Control   Outer-Iter.   Inner-Iter.     Column Row Layer    Maximum-Head-Change  Column Row Layer    Maximum-Flux-Residual          L2-NORM 
          0                 1           2             2    2     1       0.7145522110E-02       2    2    1         0.3728206354E+00      0.7751638527E+00
          0                 2           2             2    2     1      -0.6950662525E-03       2    2    1        -0.3728218286E-01      0.7714856412E-01
          0                 3           1             2    2     1       0.4733141760E-04       2    2    1         0.2609752820E-02      0.5367115503E-02

    ------------------------------------------------
       NWT REQUIRED            3 OUTER ITERATIONS 
       AND A TOTAL OF          5 INNER ITERATIONS.
    ------------------------------------------------

 NO OUTPUT CONTROL FOR STRESS PERIOD    4   TIME STEP   20
 
 SOLVING FOR HEAD 
                                                   Max.-Head-Change                         Max.-Flux-Residual
  Residual-Control   Outer-Iter.   Inner-Iter.     Column Row Layer    Maximum-Head-Change  Column Row Layer    Maximum-Flux-Residual          L2-NORM 
          0                 1           2             2    2     1       0.7105773113E-02       2    2    1         0.3707313907E+00      0.7639714519E+00
          0                 2           2             2    2     1      -0.6911997295E-03       2    2    1        -0.3707325647E-01      0.7607257109E-01
          0                 3           1             2    2     1       0.4706812214E-04       2    2    1         0.2595127967E-02      0.5295636288E-02

    ------------------------------------------------
       NWT REQUIRED            3 OUTER ITERATIONS 
       AND A TOTAL OF          5 INNER ITERATIONS.
    ------------------------------------------------

 NO OUTPUT CONTROL FOR STRESS PERIOD    4   TIME STEP   21
 
 SOLVING FOR HEAD 
                                                   Max.-Head-Change                         Max.-Flux-Residual
  Residual-Control   Outer-Iter.   Inner-Iter.     Column Row Layer    Maximum-Head-Change  Column Row Layer    Maximum-Flux-Residual          L2-NORM 
          0                 1           2             2    2     1       0.7066561038E-02       2    2    1         0.3686704548E+00      0.7538013824E+00
          0                 2           2             2    2     1      -0.6873854355E-03       2    2    1        -0.3686716101E-01      0.7509378762E-01
          0                 3           1             2    2     1       0.4680838269E-04       2    2    1         0.2580701293E-02      0.5230576660E-02

    ------------------------------------------------
       NWT REQUIRED            3 OUTER ITERATIONS 
       AND A TOTAL OF          5 INNER ITERATIONS.
    ------------------------------------------------

 NO OUTPUT CONTROL FOR STRESS PERIOD    4   TIME STEP   22
 
 SOLVING FOR HEAD 
                                                   Max.-Head-Change                         Max.-Flux-Residual
  Residual-Control   Outer-Iter.   Inner-Iter.     Column Row Layer    Maximum-Head-Change  Column Row Layer    Maximum-Flux-Residual          L2-NORM 
          0                 1           2             2    2     1       0.7027878183E-02       2    2    1         0.3666373575E+00      0.7445176753E+00
          0                 2           2             2    2     1      -0.6836226205E-03       2    2    1        -0.3666384943E-01      0.7419851630E-01
          0                 3           1             2    2     1       0.4655214908E-04       2    2    1         0.2566469479E-02      0.5171094733E-02

    ------------------------------------------------
       NWT REQUIRED            3 OUTER ITERATIONS 
       AND A TOTAL OF          5 INNER ITERATIONS.
    ------------------------------------------------

 NO OUTPUT CONTROL FOR STRESS PERIOD    4   TIME STEP   23
 
 SOLVING FOR HEAD 
                                                   Max.-Head-Change                         Max.-Flux-Residual
  Residual-Control   Outer-Iter.   Inner-Iter.     Column Row Layer    Maximum-Head-Change  Column Row Layer    Maximum-Flux-Residual          L2-NORM 
          0                 1           2             2    2     1       0.6989628530E-02       2    2    1         0.3646271360E+00      0.7360061713E+00
          0                 2           2             2    2     1      -0.6799019457E-03       2    2    1        -0.3646282549E-01      0.7337673028E-01
          0                 3           1             2    2     1       0.4629878561E-04       2    2    1         0.2552397840E-02      0.5116042803E-02

    ------------------------------------------------
       NWT REQUIRED            3 OUTER ITERATIONS 
       AND A TOTAL OF          5 INNER ITERATIONS.
    ------------------------------------------------

 NO OUTPUT CONTROL FOR STRESS PERIOD    4   TIME STEP   24
 
 SOLVING FOR HEAD 
                                                   Max.-Head-Change                         Max.-Flux-Residual
  Residual-Control   Outer-Iter.   Inner-Iter.     Column Row Layer    Maximum-Head-Change  Column Row Layer    Maximum-Flux-Residual          L2-NORM 
          0                 1           2             2    2     1       0.6951891894E-02       2    2    1         0.3626439390E+00      0.7281990690E+00
          0                 2           2             2    2     1      -0.6762311728E-03       2    2    1        -0.3626450401E-01      0.7262139131E-01
          0                 3           1             2    2     1       0.4604881935E-04       2    2    1         0.2538515327E-02      0.5065316708E-02

    ------------------------------------------------
       NWT REQUIRED            3 OUTER ITERATIONS 
       AND A TOTAL OF          5 INNER ITERATIONS.
    ------------------------------------------------

 NO OUTPUT CONTROL FOR STRESS PERIOD    4   TIME STEP   25
 
 SOLVING FOR HEAD 
                                                   Max.-Head-Change                         Max.-Flux-Residual
  Residual-Control   Outer-Iter.   Inner-Iter.     Column Row Layer    Maximum-Head-Change  Column Row Layer    Maximum-Flux-Residual          L2-NORM 
          0                 1           2             2    2     1       0.6914661345E-02       2    2    1         0.3606873414E+00      0.7209915511E+00
          0                 2           2             2    2     1      -0.6726096300E-03       2    2    1        -0.3606884255E-01      0.7192342868E-01
          0                 3           1             2    2     1       0.4580220627E-04       2    2    1         0.2524819050E-02      0.5018425722E-02

    ------------------------------------------------
       NWT REQUIRED            3 OUTER ITERATIONS 
       AND A TOTAL OF          5 INNER ITERATIONS.
    ------------------------------------------------

 NO OUTPUT CONTROL FOR STRESS PERIOD    4   TIME STEP   26
 
 SOLVING FOR HEAD 
                                                   Max.-Head-Change                         Max.-Flux-Residual
  Residual-Control   Outer-Iter.   Inner-Iter.     Column Row Layer    Maximum-Head-Change  Column Row Layer    Maximum-Flux-Residual          L2-NORM 
          0                 1           2             2    2     1       0.6877928148E-02       2    2    1         0.3587569838E+00      0.7143396397E+00
          0                 2           2             2    2     1      -0.6690364662E-03       2    2    1        -0.3587580513E-01      0.7127809270E-01
          0                 3           1             2    2     1       0.4555888698E-04       2    2    1         0.2511306422E-02      0.4975278795E-02

    ------------------------------------------------
       NWT REQUIRED            3 OUTER ITERATIONS 
       AND A TOTAL OF          5 INNER ITERATIONS.
    ------------------------------------------------

 NO OUTPUT CONTROL FOR STRESS PERIOD    4   TIME STEP   27
 
 SOLVING FOR HEAD 
                                                   Max.-Head-Change                         Max.-Flux-Residual
  Residual-Control   Outer-Iter.   Inner-Iter.     Column Row Layer    Maximum-Head-Change  Column Row Layer    Maximum-Flux-Residual          L2-NORM 
          0                 1           2             2    2     1       0.6841597596E-02       2    2    1         0.3568478487E+00      0.7081476880E+00
          0                 2           2             2    2     1      -0.6655024691E-03       2    2    1        -0.3568488996E-01      0.7067626704E-01
          0                 3           1             2    2     1       0.4531823546E-04       2    2    1         0.2497942376E-02      0.4934773698E-02

    ------------------------------------------------
       NWT REQUIRED            3 OUTER ITERATIONS 
       AND A TOTAL OF          5 INNER ITERATIONS.
    ------------------------------------------------

 NO OUTPUT CONTROL FOR STRESS PERIOD    4   TIME STEP   28
 
 SOLVING FOR HEAD 
                                                   Max.-Head-Change                         Max.-Flux-Residual
  Residual-Control   Outer-Iter.   Inner-Iter.     Column Row Layer    Maximum-Head-Change  Column Row Layer    Maximum-Flux-Residual          L2-NORM 
          0                 1           2             2    2     1       0.6805750388E-02       2    2    1         0.3549641547E+00      0.7023917770E+00
          0                 2           2             2    2     1      -0.6620154888E-03       2    2    1        -0.3549651895E-01      0.7011597016E-01
          0                 3           1             2    2     1       0.4508078519E-04       2    2    1         0.2484756405E-02      0.4897013193E-02

    ------------------------------------------------
       NWT REQUIRED            3 OUTER ITERATIONS 
       AND A TOTAL OF          5 INNER ITERATIONS.
    ------------------------------------------------

 NO OUTPUT CONTROL FOR STRESS PERIOD    4   TIME STEP   29
 
 SOLVING FOR HEAD 
                                                   Max.-Head-Change                         Max.-Flux-Residual
  Residual-Control   Outer-Iter.   Inner-Iter.     Column Row Layer    Maximum-Head-Change  Column Row Layer    Maximum-Flux-Residual          L2-NORM 
          0                 1           2             2    2     1       0.5350702560E-02       2    2    1         0.2788864371E+00      0.6872008100E+00
          0                 2           2             2    2     1      -0.5204783244E-03       2    2    1        -0.2788870166E-01      0.6809450817E-01
          0                 3           1             2    2     1       0.3544263565E-04       2    2    1         0.1952209401E-02      0.4709191553E-02

    ------------------------------------------------
       NWT REQUIRED            3 OUTER ITERATIONS 
       AND A TOTAL OF          5 INNER ITERATIONS.
    ------------------------------------------------

 NO OUTPUT CONTROL FOR STRESS PERIOD    4   TIME STEP   30



 STREAM LISTING     PERIOD      4   STEP       30

 LAYER ROW COL. STREAM  RCH.  FLOW INTO     FLOW TO   FLOW OUT OF   OVRLND.     DIRECT     STREAM       STREAM     STREAM     STREAM   STREAMBED  STREAMBED
                SEG.NO.  NO.  STRM. RCH.    AQUIFER    STRM. RCH.    RUNOFF     PRECIP       ET          HEAD       DEPTH      WIDTH   CONDCTNC.   GRADIENT

   1    1    1     1     1    6.2247E+01  3.7977E-01   6.1867E+01  0.000E+00  0.000E+00  0.000E+00  1.09460E+03  1.553E+00  1.854E+01  8.342E-02  1.518E+00
   1    2    2     1     2    6.1867E+01  5.8816E-01   6.1279E+01  0.000E+00  0.000E+00  0.000E+00  1.08961E+03  1.547E+00  1.848E+01  1.294E-01  1.516E+00
   1    3    3     1     3    6.1279E+01  5.0162E-01   6.0777E+01  0.000E+00  0.000E+00  0.000E+00  1.08396E+03  1.540E+00  1.841E+01  1.105E-01  1.513E+00
   1    3    4     1     4    6.0777E+01  4.6193E-01   6.0316E+01  0.000E+00  0.000E+00  0.000E+00  1.07894E+03  1.534E+00  1.836E+01  1.019E-01  1.511E+00
   1    4    5     2     1    5.8316E+01  3.9026E-01   5.7925E+01  0.000E+00  0.000E+00  0.000E+00  1.07394E+03  2.003E+00  1.200E+01  7.800E-02  1.668E+00
   1    5    6     2     2    5.7925E+01  2.9977E-01   5.7626E+01  0.000E+00  0.000E+00  0.000E+00  1.06851E+03  1.996E+00  1.200E+01  6.000E-02  1.665E+00
   1    6    6     2     3    5.7626E+01  2.9940E-01   5.7326E+01  0.000E+00  0.000E+00  0.000E+00  1.06378E+03  1.990E+00  1.200E+01  6.000E-02  1.663E+00
   1    7    6     2     4    5.7326E+01  2.9902E-01   5.7027E+01  0.000E+00  0.000E+00  0.000E+00  1.05906E+03  1.984E+00  1.200E+01  6.000E-02  1.661E+00
   1    8    6     2     5    5.7027E+01  2.9865E-01   5.6728E+01  0.000E+00  0.000E+00  0.000E+00  1.05434E+03  1.977E+00  1.200E+01  6.000E-02  1.659E+00
   1    3    5     3     1    2.0000E+00  2.8252E-01   1.7175E+00  0.000E+00  0.000E+00  0.000E+00  1.07555E+03  1.909E+00  9.636E+00  7.227E-02  1.955E+00
   1    3    6     3     2    1.7175E+00  2.4905E-01   1.4684E+00  0.000E+00  0.000E+00  0.000E+00  1.07264E+03  1.727E+00  8.909E+00  6.682E-02  1.864E+00
   1    3    7     3     3    1.4684E+00  1.9718E-01   1.2712E+00  0.000E+00  0.000E+00  0.000E+00  1.06987E+03  1.555E+00  8.218E+00  5.547E-02  1.777E+00
   1    4    8     3     4    1.2712E+00  2.2567E-01   1.0456E+00  0.000E+00  0.000E+00  0.000E+00  1.06682E+03  1.364E+00  7.455E+00  6.709E-02  1.682E+00
   1    5    8     3     5    1.0456E+00  1.5790E-01   8.8768E-01  0.000E+00  0.000E+00  0.000E+00  1.06362E+03  1.164E+00  6.655E+00  4.991E-02  1.582E+00
   1    6    8     3     6    8.8768E-01  5.5980E-02   8.3170E-01  0.000E+00  0.000E+00  0.000E+00  1.06158E+03  1.036E+00  6.145E+00  1.844E-02  1.518E+00
   1    5   10     4     1    1.0000E+01  9.0919E-02   9.9091E+00  0.000E+00  0.000E+00  0.000E+00  1.07836E+03  6.368E-01  1.000E+01  2.500E-02  1.212E+00
   1    5    9     4     2    9.9091E+00  1.8158E-01   9.7275E+00  0.000E+00  0.000E+00  0.000E+00  1.07154E+03  6.315E-01  1.000E+01  5.000E-02  1.211E+00
   1    6    8     4     3    9.7275E+00  1.2689E-01   9.6006E+00  0.000E+00  0.000E+00  0.000E+00  1.06381E+03  6.256E-01  1.000E+01  3.500E-02  1.209E+00
   1    6    8     5     1    1.0432E+01  2.2686E-01   1.0205E+01  0.000E+00  0.000E+00  0.000E+00  1.05868E+03  6.790E-01  1.542E+01  6.166E-02  1.226E+00
   1    7    7     5     2    1.0205E+01  2.7894E-01   9.9265E+00  0.000E+00  0.000E+00  0.000E+00  1.05417E+03  6.732E-01  1.519E+01  7.594E-02  1.224E+00
   1    8    7     5     3    9.9265E+00  1.9221E-01   9.7343E+00  0.000E+00  0.000E+00  0.000E+00  1.04992E+03  6.676E-01  1.497E+01  5.241E-02  1.223E+00
   1    8    6     5     4    9.7343E+00  1.3577E-01   9.5985E+00  0.000E+00  0.000E+00  0.000E+00  1.04691E+03  6.637E-01  1.482E+01  3.706E-02  1.221E+00
   1    9    6     6     1    6.6327E+01  3.1138E-01   6.6016E+01  0.000E+00  0.000E+00  0.000E+00  1.04492E+03  2.190E+00  1.200E+01  6.000E-02  1.730E+00
   1   10    7     6     2    6.6016E+01  3.1101E-01   6.5705E+01  0.000E+00  0.000E+00  0.000E+00  1.04037E+03  2.183E+00  1.200E+01  6.000E-02  1.728E+00
   1   11    7     6     3    6.5705E+01  3.1064E-01   6.5394E+01  0.000E+00  0.000E+00  0.000E+00  1.03581E+03  2.177E+00  1.200E+01  6.000E-02  1.726E+00
   1   12    7     6     4    6.5394E+01  3.1026E-01   6.5084E+01  0.000E+00  0.000E+00  0.000E+00  1.03126E+03  2.171E+00  1.200E+01  6.000E-02  1.724E+00
   1   13    7     6     5    6.5084E+01  2.1634E-02   6.5062E+01  0.000E+00  0.000E+00  0.000E+00  1.02808E+03  2.168E+00  1.200E+01  2.400E-02  3.005E-01
   1   14    9     7     1    1.5000E+02  1.3316E+00   1.4867E+02  0.000E+00  0.000E+00  0.000E+00  1.03987E+03  2.288E+00  5.529E+01  5.593E-01  7.936E-01
   1   13    8     7     2    1.4867E+02  1.8148E+00   1.4685E+02  0.000E+00  0.000E+00  0.000E+00  1.03478E+03  2.279E+00  5.526E+01  6.148E-01  9.840E-01
   1   13    7     7     3    1.4685E+02  1.4044E+00   1.4545E+02  0.000E+00  0.000E+00  0.000E+00  1.02969E+03  2.271E+00  5.522E+01  5.585E-01  8.382E-01
   1   13    6     8     1    2.1051E+02  1.0054E+00   2.0951E+02  0.000E+00  0.000E+00  0.000E+00  1.02507E+03  3.196E+00  4.634E+01  4.722E-01  7.097E-01
   1   13    5     8     2    2.0951E+02  1.9100E-01   2.0931E+02  0.000E+00  0.000E+00  0.000E+00  1.01882E+03  3.192E+00  4.629E+01  4.717E-01  1.350E-01
   1   13    4     8     3    2.0931E+02 -2.6809E+00   2.1200E+02  0.000E+00  0.000E+00  0.000E+00  1.01257E+03  3.199E+00  4.639E+01  4.727E+00 -1.890E-01
   1   13    3     8     4    2.1200E+02 -3.8539E+00   2.1585E+02  0.000E+00  0.000E+00  0.000E+00  1.00634E+03  3.218E+00  4.666E+01  4.755E+00 -2.702E-01
   1   13    2     8     5    2.1585E+02 -2.7437E+00   2.1859E+02  0.000E+00  0.000E+00  0.000E+00  1.00011E+03  3.236E+00  4.693E+01  4.782E+00 -1.912E-01
   1   13    1     8     6    2.1859E+02 -2.0240E+00   2.2062E+02  0.000E+00  0.000E+00  0.000E+00  9.95125E+02  3.250E+00  4.712E+01  2.881E+00 -2.342E-01





UNSATURATED ZONE PACKAGE VOLUMETRIC BUDGET FOR  TIME STEP    30 STRESS PERIOD    4
  ------------------------------------------------------------------------------



     CUMULATIVE VOLUMES      L**3       RATES FOR THIS TIME STEP      L**3/T
     ------------------                 ------------------------

           IN:                                      IN:
           ---                                      ---
        INFILTRATION =     6759998.6182          INFILTRATION =           0.8475

          OUT:                                     OUT:
          ----                                     ----
              UZF ET =     5917459.0304                UZF ET =           0.7500
        UZF RECHARGE =       73224.0000          UZF RECHARGE =       0.0000E+00

            IN - OUT =      769315.5878              IN - OUT =       9.7500E-02

          STORAGE:                                 STORAGE:
          --------                                 --------
      STORAGE CHANGE =      769315.6504        STORAGE CHANGE =       9.7500E-02

 PERCENT DISCREPANCY IS DIFFERENCE BETWEEN IN-OUT MINUS CHANGE IN STORAGE
 DIVIDED BY THE AVERAGE OF IN AND OUT TIMES 100

 PERCENT DISCREPANCY =           0.00     PERCENT DISCREPANCY =           0.00






1
  VOLUMETRIC BUDGET FOR AGRICULTURAL FIELDS AT  END OF TIME STEP   30, STRESS PERIOD   4
  ------------------------------------------------------------------------------

     CUMULATIVE VOLUMES      L**3       RATES FOR THIS TIME STEP      L**3/T
     ------------------                 ------------------------

           IN:                                      IN:
           ---                                      ---
           AG WELLS      =           0.0000             AG WELLS      =           0.0000
      DIVERSION SEGMENTS =           0.0000        DIVERSION SEGMENTS =           0.0000
           GW IRRIGATION =           0.0000             GW IRRIGATION =           0.0000
           SW IRRIGATION =           0.0000             SW IRRIGATION =           0.0000
        SYSTEM LOSSES GW =           0.0000          SYSTEM LOSSES GW =           0.0000
        SYSTEM LOSSES SW =           0.0000          SYSTEM LOSSES SW =           0.0000

                TOTAL IN =           0.0000                  TOTAL IN =           0.0000

          OUT:                                     OUT:
          ----                                     ----
           AG WELLS      =           0.0000             AG WELLS      =           0.0000
      DIVERSION SEGMENTS =           0.0000        DIVERSION SEGMENTS =           0.0000
           GW IRRIGATION =           0.0000             GW IRRIGATION =           0.0000
           SW IRRIGATION =           0.0000             SW IRRIGATION =           0.0000
        SYSTEM LOSSES GW =           0.0000          SYSTEM LOSSES GW =           0.0000
        SYSTEM LOSSES SW =           0.0000          SYSTEM LOSSES SW =           0.0000

               TOTAL OUT =           0.0000                 TOTAL OUT =           0.0000

                IN - OUT =           0.0000                  IN - OUT =           0.0000

     PERCENT DISCREPANCY =           0.00         PERCENT DISCREPANCY =           0.00



1
  VOLUMETRIC BUDGET FOR ENTIRE MODEL AT END OF TIME STEP   30, STRESS PERIOD   4
  ------------------------------------------------------------------------------

     CUMULATIVE VOLUMES      L**3       RATES FOR THIS TIME STEP      L**3/T
     ------------------                 ------------------------

           IN:                                      IN:
           ---                                      ---
             STORAGE     =     4269829.5000               STORAGE     =           1.1052
       CONSTANT HEAD     =           0.0000         CONSTANT HEAD     =           0.0000
     HEAD DEP BOUNDS     =     2276621.5000       HEAD DEP BOUNDS     =           0.2855
      STREAM LEAKAGE     =    98974160.0000        STREAM LEAKAGE     =          12.9321
        UZF RECHARGE     =       73223.9531          UZF RECHARGE     =           0.0000
               GW ET     =           0.0000                 GW ET     =           0.0000
     SURFACE LEAKAGE     =           0.0000       SURFACE LEAKAGE     =           0.0000
           AG WELLS      =           0.0000             AG WELLS      =           0.0000

                TOTAL IN =   105593832.0000                  TOTAL IN =          14.3228

          OUT:                                     OUT:
          ----                                     ----
             STORAGE     =    22369452.0000               STORAGE     =           2.7188
       CONSTANT HEAD     =           0.0000         CONSTANT HEAD     =           0.0000
     HEAD DEP BOUNDS     =     2327708.2500       HEAD DEP BOUNDS     =           0.2974
      STREAM LEAKAGE     =    80891960.0000        STREAM LEAKAGE     =          11.3025
        UZF RECHARGE     =           0.0000          UZF RECHARGE     =           0.0000
               GW ET     =        9869.2041                 GW ET     =       4.4240E-03
     SURFACE LEAKAGE     =           0.0000       SURFACE LEAKAGE     =           0.0000
           AG WELLS      =           0.0000             AG WELLS      =           0.0000

               TOTAL OUT =   105598992.0000                 TOTAL OUT =          14.3232

                IN - OUT =       -5160.0000                  IN - OUT =      -4.5967E-04

     PERCENT DISCREPANCY =          -0.00         PERCENT DISCREPANCY =          -0.00






         TIME SUMMARY AT END OF TIME STEP   30 IN STRESS PERIOD    4
                    SECONDS     MINUTES      HOURS       DAYS        YEARS
                    -----------------------------------------------------------
   TIME STEP LENGTH  87667.      1461.1      24.352      1.0147     2.77799E-03
 STRESS PERIOD TIME 2.63000E+06  43833.      730.56      30.440     8.33397E-02
         TOTAL TIME 7.97639E+06 1.32940E+05  2215.7      92.319     0.25276    
1
1
                            STRESS PERIOD NO.    5, LENGTH =   2630000.    
                            -----------------------------------------------

                              NUMBER OF TIME STEPS =    30

                               MULTIPLIER FOR DELT =     1.000

                            INITIAL TIME STEP SIZE =   87666.66    

 REUSING NON-PARAMETER GHB CELLS FROM LAST STRESS PERIOD

      2 GHB CELLS

 REUSING STREAM SEGMENT DATA FROM LAST STRESS PERIOD



            AREAL INFILTRATION RATE
 READING ON UNIT   19 WITH FORMAT: (FREE)              

            1           2           3           4           5           6           7           8           9          10
 ........................................................................................................................
   1   1.0000E-10  2.0000E-10   0.000       0.000       0.000       0.000       0.000       0.000       0.000       0.000    
   2   2.0000E-10  1.0000E-10  2.0000E-10   0.000       0.000      8.0000E-10  8.0000E-10  5.0000E-10   0.000       0.000    
   3    0.000      5.0000E-10  1.0000E-10  1.0000E-10  8.0000E-10  8.0000E-10  5.0000E-10  5.0000E-10   0.000       0.000    
   4   8.0000E-10  5.0000E-10  1.0000E-10  1.0000E-10  1.0000E-10  1.0000E-10  1.0000E-10  1.0000E-10  2.0000E-10   0.000    
   5   8.0000E-10  5.0000E-10  1.0000E-10  1.0000E-10  1.0000E-10  1.0000E-10  1.0000E-10  1.0000E-10  1.0000E-10  1.0000E-10
   6   8.0000E-10  5.0000E-10  5.0000E-10  2.0000E-10  2.0000E-10  1.0000E-10  1.0000E-10  1.0000E-10  1.0000E-10  5.0000E-10
   7   8.0000E-10  5.0000E-10  5.0000E-10  2.0000E-10  2.0000E-10  1.0000E-10  1.0000E-10  2.0000E-10  2.0000E-10   0.000    
   8    0.000      5.0000E-10  5.0000E-10  2.0000E-10  2.0000E-10  1.0000E-10  1.0000E-10  2.0000E-10  5.0000E-10   0.000    
   9    0.000      5.0000E-10  5.0000E-10  2.0000E-10  2.0000E-10  1.0000E-10  1.0000E-10  2.0000E-10  5.0000E-10   0.000    
  10    0.000      5.0000E-10  5.0000E-10  2.0000E-10  2.0000E-10  1.0000E-10  1.0000E-10  2.0000E-10  5.0000E-10  8.0000E-10
  11    0.000      1.0000E-10  1.0000E-10  1.0000E-10  1.0000E-10  1.0000E-10  1.0000E-10  2.0000E-10  5.0000E-10   0.000    
  12   1.0000E-10  1.0000E-10  1.0000E-10  1.0000E-10  1.0000E-10  1.0000E-10  1.0000E-10  1.0000E-10  2.0000E-10   0.000    
  13   1.0000E-10  1.0000E-10  2.0000E-10  2.0000E-10  2.0000E-10  2.0000E-10  2.0000E-10  1.0000E-10  1.0000E-10   0.000    
  14    0.000      2.0000E-10  5.0000E-10  5.0000E-10  5.0000E-10  5.0000E-10  5.0000E-10  2.0000E-10  1.0000E-10   0.000    
  15    0.000       0.000      8.0000E-10  8.0000E-10  8.0000E-10  8.0000E-10   0.000       0.000       0.000       0.000    

                  ET RATE =  2.500000E-08

 USING ET EXTINCTION DEPTH FROM PREVIOUS STRESS PERIOD. CURRENT PERIOD IS:       5

 USING EXTINCTION WATER CONTENT FROM PREVIOUS STRESS PERIOD. CURRENT PERIOD IS:       5

 USING AIR ENTRY PRESSURE FROM PREVIOUS STRESS PERIOD. CURRENT PERIOD IS:       5

 USING ROOT PRESSURE HEAD FROM PREVIOUS STRESS PERIOD. CURRENT PERIOD IS:       5

 USING ROOT ACTIVITY FROM PREVIOUS STRESS PERIOD. CURRENT PERIOD IS:       5

 PROCESSING AG STRESS PERIOD DATA

 READING AG STRESS PERIOD DATA

 READING IRRIGATION WELL

 END PROCESSING AG STRESS PERIOD DATA OPTIONS
 
 SOLVING FOR HEAD 
                                                   Max.-Head-Change                         Max.-Flux-Residual
  Residual-Control   Outer-Iter.   Inner-Iter.     Column Row Layer    Maximum-Head-Change  Column Row Layer    Maximum-Flux-Residual          L2-NORM 
          0                 1           2             4   13     1      -0.1883719382E-01       4   13    1        -0.1104091054E+01      0.2354826041E+01
          0                 2           2             4   13     1       0.1817347249E-02       4   13    1         0.1095196267E+00      0.2321047396E+00
          0                 3           2             4   13     1      -0.1223476811E-03       4   13    1        -0.7580669821E-02      0.1593426248E-01
          0                 4           1             4   13     1       0.4780420555E-05       4   13    1         0.3045513195E-03      0.6319250762E-03

    ------------------------------------------------
       NWT REQUIRED            4 OUTER ITERATIONS 
       AND A TOTAL OF          7 INNER ITERATIONS.
    ------------------------------------------------

 OUTPUT CONTROL FOR STRESS PERIOD    5   TIME STEP    1
    PRINT BUDGET
    SAVE BUDGET
 UBDSV1 SAVING "         STORAGE" ON UNIT 102 AT TIME STEP 1, STRESS PERIOD 5
 UBDSV2 SAVING "   CONSTANT HEAD" ON UNIT 102 AT TIME STEP 1, STRESS PERIOD 5
 UBDSV1 SAVING "FLOW RIGHT FACE " ON UNIT 102 AT TIME STEP 1, STRESS PERIOD 5
 UBDSV1 SAVING "FLOW FRONT FACE " ON UNIT 102 AT TIME STEP 1, STRESS PERIOD 5

  HEAD DEP BOUNDS   PERIOD    5   STEP     1
 BOUNDARY      1   LAYER   1   ROW    13   COL     1   RATE   -0.297160    
 BOUNDARY      2   LAYER   1   ROW    14   COL     9   RATE    0.285471    



 STREAM LISTING     PERIOD      5   STEP        1

 LAYER ROW COL. STREAM  RCH.  FLOW INTO     FLOW TO   FLOW OUT OF   OVRLND.     DIRECT     STREAM       STREAM     STREAM     STREAM   STREAMBED  STREAMBED
                SEG.NO.  NO.  STRM. RCH.    AQUIFER    STRM. RCH.    RUNOFF     PRECIP       ET          HEAD       DEPTH      WIDTH   CONDCTNC.   GRADIENT

   1    1    1     1     1    2.8000E+01  2.5860E-01   2.7741E+01  0.000E+00  0.000E+00  0.000E+00  1.09427E+03  1.221E+00  1.361E+01  6.126E-02  1.407E+00
   1    2    2     1     2    2.7741E+01  4.0002E-01   2.7341E+01  0.000E+00  0.000E+00  0.000E+00  1.08928E+03  1.217E+00  1.355E+01  9.487E-02  1.406E+00
   1    3    3     1     3    2.7341E+01  3.4070E-01   2.7001E+01  0.000E+00  0.000E+00  0.000E+00  1.08363E+03  1.212E+00  1.348E+01  8.090E-02  1.404E+00
   1    3    4     1     4    2.7001E+01  3.1335E-01   2.6687E+01  0.000E+00  0.000E+00  0.000E+00  1.07861E+03  1.207E+00  1.342E+01  7.448E-02  1.402E+00
   1    4    5     2     1    2.4687E+01  3.2711E-01   2.4360E+01  0.000E+00  0.000E+00  0.000E+00  1.07313E+03  1.194E+00  1.200E+01  7.800E-02  1.398E+00
   1    5    6     2     2    2.4360E+01  2.5111E-01   2.4109E+01  0.000E+00  0.000E+00  0.000E+00  1.06769E+03  1.185E+00  1.200E+01  6.000E-02  1.395E+00
   1    6    6     2     3    2.4109E+01  2.5067E-01   2.3858E+01  0.000E+00  0.000E+00  0.000E+00  1.06297E+03  1.178E+00  1.200E+01  6.000E-02  1.393E+00
   1    7    6     2     4    2.3858E+01  2.5023E-01   2.3608E+01  0.000E+00  0.000E+00  0.000E+00  1.05825E+03  1.170E+00  1.200E+01  6.000E-02  1.390E+00
   1    8    6     2     5    2.3608E+01  2.4978E-01   2.3358E+01  0.000E+00  0.000E+00  0.000E+00  1.05352E+03  1.163E+00  1.200E+01  6.000E-02  1.388E+00
   1    3    5     3     1    2.0000E+00  2.8252E-01   1.7175E+00  0.000E+00  0.000E+00  0.000E+00  1.07555E+03  1.909E+00  9.636E+00  7.227E-02  1.955E+00
   1    3    6     3     2    1.7175E+00  2.4905E-01   1.4684E+00  0.000E+00  0.000E+00  0.000E+00  1.07264E+03  1.727E+00  8.909E+00  6.682E-02  1.864E+00
   1    3    7     3     3    1.4684E+00  1.9718E-01   1.2712E+00  0.000E+00  0.000E+00  0.000E+00  1.06987E+03  1.555E+00  8.218E+00  5.547E-02  1.777E+00
   1    4    8     3     4    1.2712E+00  2.2567E-01   1.0456E+00  0.000E+00  0.000E+00  0.000E+00  1.06682E+03  1.364E+00  7.455E+00  6.709E-02  1.682E+00
   1    5    8     3     5    1.0456E+00  1.5790E-01   8.8768E-01  0.000E+00  0.000E+00  0.000E+00  1.06362E+03  1.164E+00  6.655E+00  4.991E-02  1.582E+00
   1    6    8     3     6    8.8768E-01  5.5980E-02   8.3170E-01  0.000E+00  0.000E+00  0.000E+00  1.06158E+03  1.036E+00  6.145E+00  1.844E-02  1.518E+00
   1    5   10     4     1    1.0000E+01  9.0919E-02   9.9091E+00  0.000E+00  0.000E+00  0.000E+00  1.07836E+03  6.368E-01  1.000E+01  2.500E-02  1.212E+00
   1    5    9     4     2    9.9091E+00  1.8158E-01   9.7275E+00  0.000E+00  0.000E+00  0.000E+00  1.07154E+03  6.315E-01  1.000E+01  5.000E-02  1.211E+00
   1    6    8     4     3    9.7275E+00  1.2689E-01   9.6006E+00  0.000E+00  0.000E+00  0.000E+00  1.06381E+03  6.256E-01  1.000E+01  3.500E-02  1.209E+00
   1    6    8     5     1    1.0432E+01  2.2686E-01   1.0205E+01  0.000E+00  0.000E+00  0.000E+00  1.05868E+03  6.790E-01  1.542E+01  6.166E-02  1.226E+00
   1    7    7     5     2    1.0205E+01  2.7894E-01   9.9265E+00  0.000E+00  0.000E+00  0.000E+00  1.05417E+03  6.732E-01  1.519E+01  7.594E-02  1.224E+00
   1    8    7     5     3    9.9265E+00  1.9221E-01   9.7343E+00  0.000E+00  0.000E+00  0.000E+00  1.04992E+03  6.676E-01  1.497E+01  5.241E-02  1.223E+00
   1    8    6     5     4    9.7343E+00  1.3577E-01   9.5985E+00  0.000E+00  0.000E+00  0.000E+00  1.04691E+03  6.637E-01  1.482E+01  3.706E-02  1.221E+00
   1    9    6     6     1    3.2957E+01  2.6627E-01   3.2691E+01  0.000E+00  0.000E+00  0.000E+00  1.04417E+03  1.438E+00  1.200E+01  6.000E-02  1.479E+00
   1   10    7     6     2    3.2691E+01  2.6584E-01   3.2425E+01  0.000E+00  0.000E+00  0.000E+00  1.03961E+03  1.431E+00  1.200E+01  6.000E-02  1.477E+00
   1   11    7     6     3    3.2425E+01  2.6542E-01   3.2159E+01  0.000E+00  0.000E+00  0.000E+00  1.03506E+03  1.424E+00  1.200E+01  6.000E-02  1.475E+00
   1   12    7     6     4    3.2159E+01  2.6500E-01   3.1894E+01  0.000E+00  0.000E+00  0.000E+00  1.03051E+03  1.417E+00  1.200E+01  6.000E-02  1.472E+00
   1   13    7     6     5    3.1894E+01  3.5108E-03   3.1891E+01  0.000E+00  0.000E+00  0.000E+00  1.02732E+03  1.413E+00  1.200E+01  2.400E-02  4.876E-02
   1   14    9     7     1    1.5000E+02  1.3316E+00   1.4867E+02  0.000E+00  0.000E+00  0.000E+00  1.03987E+03  2.288E+00  5.529E+01  5.593E-01  7.936E-01
   1   13    8     7     2    1.4867E+02  1.8147E+00   1.4685E+02  0.000E+00  0.000E+00  0.000E+00  1.03478E+03  2.279E+00  5.526E+01  6.148E-01  9.839E-01
   1   13    7     7     3    1.4685E+02  1.4041E+00   1.4545E+02  0.000E+00  0.000E+00  0.000E+00  1.02969E+03  2.271E+00  5.522E+01  5.585E-01  8.381E-01
   1   13    6     8     1    1.7734E+02  8.5541E-01   1.7649E+02  0.000E+00  0.000E+00  0.000E+00  1.02487E+03  2.997E+00  4.345E+01  4.428E-01  6.440E-01
   1   13    5     8     2    1.7649E+02  9.1594E-02   1.7639E+02  0.000E+00  0.000E+00  0.000E+00  1.01862E+03  2.994E+00  4.341E+01  4.423E-01  6.902E-02
   1   13    4     8     3    1.7639E+02 -3.3089E+00   1.7970E+02  0.000E+00  0.000E+00  0.000E+00  1.01238E+03  3.004E+00  4.356E+01  4.438E+00 -2.485E-01
   1   13    3     8     4    1.7970E+02 -4.4048E+00   1.8411E+02  0.000E+00  0.000E+00  0.000E+00  1.00615E+03  3.028E+00  4.391E+01  4.474E+00 -3.282E-01
   1   13    2     8     5    1.8411E+02 -3.3542E+00   1.8746E+02  0.000E+00  0.000E+00  0.000E+00  9.99927E+02  3.052E+00  4.426E+01  4.510E+00 -2.479E-01
   1   13    1     8     6    1.8746E+02 -2.3820E+00   1.8984E+02  0.000E+00  0.000E+00  0.000E+00  9.94945E+02  3.070E+00  4.451E+01  2.722E+00 -2.918E-01



 UBDSV3 SAVING "           GW ET" ON UNIT  61 AT TIME STEP 1, STRESS PERIOD 5
 UBDSV3 SAVING "    UZF RECHARGE" ON UNIT  61 AT TIME STEP 1, STRESS PERIOD 5
 UBDSV3 SAVING " SURFACE LEAKAGE" ON UNIT  61 AT TIME STEP 1, STRESS PERIOD 5
 UBDSV3 SAVING "       HORT+DUNN" ON UNIT  61 AT TIME STEP 1, STRESS PERIOD 5
 UBDSV3 SAVING "  STORAGE CHANGE" ON UNIT  61 AT TIME STEP 1, STRESS PERIOD 5


UNSATURATED ZONE PACKAGE VOLUMETRIC BUDGET FOR  TIME STEP     1 STRESS PERIOD    5
  ------------------------------------------------------------------------------



     CUMULATIVE VOLUMES      L**3       RATES FOR THIS TIME STEP      L**3/T
     ------------------                 ------------------------

           IN:                                      IN:
           ---                                      ---
        INFILTRATION =     7163046.1141          INFILTRATION =           4.5975

          OUT:                                     OUT:
          ----                                     ----
              UZF ET =     7001697.7487                UZF ET =          12.3677
        UZF RECHARGE =       73224.0000          UZF RECHARGE =       0.0000E+00

            IN - OUT =       88124.3654              IN - OUT =          -7.7702

          STORAGE:                                 STORAGE:
          --------                                 --------
      STORAGE CHANGE =       88124.4166        STORAGE CHANGE =          -7.7702

 PERCENT DISCREPANCY IS DIFFERENCE BETWEEN IN-OUT MINUS CHANGE IN STORAGE
 DIVIDED BY THE AVERAGE OF IN AND OUT TIMES 100

 PERCENT DISCREPANCY =           0.00     PERCENT DISCREPANCY =           0.00






 

        AG WELLS          PERIOD    5   STEP   1
 AG WELL      1   LAYER   1   ROW     6   COL     4   RATE   -0.625000    
 AG WELL      2   LAYER   1   ROW     6   COL     5   RATE   -0.625000    
 AG WELL      3   LAYER   1   ROW     7   COL     4   RATE   -0.625000    
 AG WELL      4   LAYER   1   ROW     7   COL     5   RATE   -0.625000    
 AG WELL      5   LAYER   1   ROW     8   COL     4   RATE   -0.625000    
 AG WELL      6   LAYER   1   ROW     8   COL     5   RATE   -0.625000    
 
 

        GW IRRIGATION     PERIOD    5   STEP   1
 AG WELL      1   ROW     6   COL     4   RATE    0.625000    
 AG WELL      2   ROW     6   COL     5   RATE    0.625000    
 AG WELL      3   ROW     7   COL     4   RATE    0.625000    
 AG WELL      4   ROW     7   COL     5   RATE    0.625000    
 AG WELL      5   ROW     8   COL     4   RATE    0.625000    
 AG WELL      6   ROW     8   COL     5   RATE    0.625000    
 
1
  VOLUMETRIC BUDGET FOR AGRICULTURAL FIELDS AT  END OF TIME STEP    1, STRESS PERIOD   5
  ------------------------------------------------------------------------------

     CUMULATIVE VOLUMES      L**3       RATES FOR THIS TIME STEP      L**3/T
     ------------------                 ------------------------

           IN:                                      IN:
           ---                                      ---
           AG WELLS      =      328750.0000             AG WELLS      =           3.7500
      DIVERSION SEGMENTS =           0.0000        DIVERSION SEGMENTS =           0.0000
           GW IRRIGATION =           0.0000             GW IRRIGATION =           0.0000
           SW IRRIGATION =           0.0000             SW IRRIGATION =           0.0000
        SYSTEM LOSSES GW =           0.0000          SYSTEM LOSSES GW =           0.0000
        SYSTEM LOSSES SW =           0.0000          SYSTEM LOSSES SW =           0.0000

                TOTAL IN =      328750.0000                  TOTAL IN =           3.7500

          OUT:                                     OUT:
          ----                                     ----
           AG WELLS      =           0.0000             AG WELLS      =           0.0000
      DIVERSION SEGMENTS =           0.0000        DIVERSION SEGMENTS =           0.0000
           GW IRRIGATION =      328750.0000             GW IRRIGATION =           3.7500
           SW IRRIGATION =           0.0000             SW IRRIGATION =           0.0000
        SYSTEM LOSSES GW =           0.0000          SYSTEM LOSSES GW =           0.0000
        SYSTEM LOSSES SW =           0.0000          SYSTEM LOSSES SW =           0.0000

               TOTAL OUT =      328750.0000                 TOTAL OUT =           3.7500

                IN - OUT =           0.0000                  IN - OUT =           0.0000

     PERCENT DISCREPANCY =           0.00         PERCENT DISCREPANCY =           0.00



1
  VOLUMETRIC BUDGET FOR ENTIRE MODEL AT END OF TIME STEP    1, STRESS PERIOD   5
  ------------------------------------------------------------------------------

     CUMULATIVE VOLUMES      L**3       RATES FOR THIS TIME STEP      L**3/T
     ------------------                 ------------------------

           IN:                                      IN:
           ---                                      ---
             STORAGE     =     4922255.0000               STORAGE     =           7.4421
       CONSTANT HEAD     =           0.0000         CONSTANT HEAD     =           0.0000
     HEAD DEP BOUNDS     =     2301647.7500       HEAD DEP BOUNDS     =           0.2855
      STREAM LEAKAGE     =    99991656.0000        STREAM LEAKAGE     =          11.6064
        UZF RECHARGE     =       73223.9531          UZF RECHARGE     =           0.0000
               GW ET     =           0.0000                 GW ET     =           0.0000
     SURFACE LEAKAGE     =           0.0000       SURFACE LEAKAGE     =           0.0000
           AG WELLS      =           0.0000             AG WELLS      =           0.0000

                TOTAL IN =   107288784.0000                  TOTAL IN =          19.3340

          OUT:                                     OUT:
          ----                                     ----
             STORAGE     =    22502026.0000               STORAGE     =           1.5122
       CONSTANT HEAD     =           0.0000         CONSTANT HEAD     =           0.0000
     HEAD DEP BOUNDS     =     2353759.2500       HEAD DEP BOUNDS     =           0.2972
      STREAM LEAKAGE     =    82071064.0000        STREAM LEAKAGE     =          13.4499
        UZF RECHARGE     =           0.0000          UZF RECHARGE     =           0.0000
               GW ET     =       38340.7969                 GW ET     =           0.3248
     SURFACE LEAKAGE     =           0.0000       SURFACE LEAKAGE     =           0.0000
           AG WELLS      =      328750.0000             AG WELLS      =           3.7500

               TOTAL OUT =   107293944.0000                 TOTAL OUT =          19.3340

                IN - OUT =       -5160.0000                  IN - OUT =      -1.5259E-05

     PERCENT DISCREPANCY =          -0.00         PERCENT DISCREPANCY =          -0.00






         TIME SUMMARY AT END OF TIME STEP    1 IN STRESS PERIOD    5
                    SECONDS     MINUTES      HOURS       DAYS        YEARS
                    -----------------------------------------------------------
   TIME STEP LENGTH  87667.      1461.1      24.352      1.0147     2.77799E-03
 STRESS PERIOD TIME  87667.      1461.1      24.352      1.0147     2.77799E-03
         TOTAL TIME 8.06406E+06 1.34401E+05  2240.0      93.334     0.25553    
1
 
 SOLVING FOR HEAD 
                                                   Max.-Head-Change                         Max.-Flux-Residual
  Residual-Control   Outer-Iter.   Inner-Iter.     Column Row Layer    Maximum-Head-Change  Column Row Layer    Maximum-Flux-Residual          L2-NORM 
          0                 1           2             4   13     1      -0.1670873103E-01       4   13    1        -0.9789545288E+00      0.1653983860E+01
          0                 2           2             4    7     1      -0.1147431284E-01       5    6    1        -0.6194586044E+00      0.1521974481E+01
          0                 3           2             4    7     1       0.7809868609E-03       5    6    1         0.4333913462E-01      0.1064435127E+00
          0                 4           1             4    7     1      -0.3107620804E-04       5    6    1        -0.1772324751E-02      0.4350818286E-02

    ------------------------------------------------
       NWT REQUIRED            4 OUTER ITERATIONS 
       AND A TOTAL OF          7 INNER ITERATIONS.
    ------------------------------------------------

 OUTPUT CONTROL FOR STRESS PERIOD    5   TIME STEP    2
    PRINT BUDGET
    SAVE BUDGET
 UBDSV1 SAVING "         STORAGE" ON UNIT 102 AT TIME STEP 2, STRESS PERIOD 5
 UBDSV2 SAVING "   CONSTANT HEAD" ON UNIT 102 AT TIME STEP 2, STRESS PERIOD 5
 UBDSV1 SAVING "FLOW RIGHT FACE " ON UNIT 102 AT TIME STEP 2, STRESS PERIOD 5
 UBDSV1 SAVING "FLOW FRONT FACE " ON UNIT 102 AT TIME STEP 2, STRESS PERIOD 5

  HEAD DEP BOUNDS   PERIOD    5   STEP     2
 BOUNDARY      1   LAYER   1   ROW    13   COL     1   RATE   -0.296895    
 BOUNDARY      2   LAYER   1   ROW    14   COL     9   RATE    0.285471    



 STREAM LISTING     PERIOD      5   STEP        2

 LAYER ROW COL. STREAM  RCH.  FLOW INTO     FLOW TO   FLOW OUT OF   OVRLND.     DIRECT     STREAM       STREAM     STREAM     STREAM   STREAMBED  STREAMBED
                SEG.NO.  NO.  STRM. RCH.    AQUIFER    STRM. RCH.    RUNOFF     PRECIP       ET          HEAD       DEPTH      WIDTH   CONDCTNC.   GRADIENT

   1    1    1     1     1    2.8000E+01  2.5860E-01   2.7741E+01  0.000E+00  0.000E+00  0.000E+00  1.09427E+03  1.221E+00  1.361E+01  6.126E-02  1.407E+00
   1    2    2     1     2    2.7741E+01  4.0002E-01   2.7341E+01  0.000E+00  0.000E+00  0.000E+00  1.08928E+03  1.217E+00  1.355E+01  9.487E-02  1.406E+00
   1    3    3     1     3    2.7341E+01  3.4070E-01   2.7001E+01  0.000E+00  0.000E+00  0.000E+00  1.08363E+03  1.212E+00  1.348E+01  8.090E-02  1.404E+00
   1    3    4     1     4    2.7001E+01  3.1335E-01   2.6687E+01  0.000E+00  0.000E+00  0.000E+00  1.07861E+03  1.207E+00  1.342E+01  7.448E-02  1.402E+00
   1    4    5     2     1    2.4687E+01  3.2711E-01   2.4360E+01  0.000E+00  0.000E+00  0.000E+00  1.07313E+03  1.194E+00  1.200E+01  7.800E-02  1.398E+00
   1    5    6     2     2    2.4360E+01  2.5111E-01   2.4109E+01  0.000E+00  0.000E+00  0.000E+00  1.06769E+03  1.185E+00  1.200E+01  6.000E-02  1.395E+00
   1    6    6     2     3    2.4109E+01  2.5067E-01   2.3858E+01  0.000E+00  0.000E+00  0.000E+00  1.06297E+03  1.178E+00  1.200E+01  6.000E-02  1.393E+00
   1    7    6     2     4    2.3858E+01  2.5023E-01   2.3608E+01  0.000E+00  0.000E+00  0.000E+00  1.05825E+03  1.170E+00  1.200E+01  6.000E-02  1.390E+00
   1    8    6     2     5    2.3608E+01  2.4978E-01   2.3358E+01  0.000E+00  0.000E+00  0.000E+00  1.05352E+03  1.163E+00  1.200E+01  6.000E-02  1.388E+00
   1    3    5     3     1    2.0000E+00  2.8252E-01   1.7175E+00  0.000E+00  0.000E+00  0.000E+00  1.07555E+03  1.909E+00  9.636E+00  7.227E-02  1.955E+00
   1    3    6     3     2    1.7175E+00  2.4905E-01   1.4684E+00  0.000E+00  0.000E+00  0.000E+00  1.07264E+03  1.727E+00  8.909E+00  6.682E-02  1.864E+00
   1    3    7     3     3    1.4684E+00  1.9718E-01   1.2712E+00  0.000E+00  0.000E+00  0.000E+00  1.06987E+03  1.555E+00  8.218E+00  5.547E-02  1.777E+00
   1    4    8     3     4    1.2712E+00  2.2567E-01   1.0456E+00  0.000E+00  0.000E+00  0.000E+00  1.06682E+03  1.364E+00  7.455E+00  6.709E-02  1.682E+00
   1    5    8     3     5    1.0456E+00  1.5790E-01   8.8768E-01  0.000E+00  0.000E+00  0.000E+00  1.06362E+03  1.164E+00  6.655E+00  4.991E-02  1.582E+00
   1    6    8     3     6    8.8768E-01  5.5980E-02   8.3170E-01  0.000E+00  0.000E+00  0.000E+00  1.06158E+03  1.036E+00  6.145E+00  1.844E-02  1.518E+00
   1    5   10     4     1    1.0000E+01  9.0919E-02   9.9091E+00  0.000E+00  0.000E+00  0.000E+00  1.07836E+03  6.368E-01  1.000E+01  2.500E-02  1.212E+00
   1    5    9     4     2    9.9091E+00  1.8158E-01   9.7275E+00  0.000E+00  0.000E+00  0.000E+00  1.07154E+03  6.315E-01  1.000E+01  5.000E-02  1.211E+00
   1    6    8     4     3    9.7275E+00  1.2689E-01   9.6006E+00  0.000E+00  0.000E+00  0.000E+00  1.06381E+03  6.256E-01  1.000E+01  3.500E-02  1.209E+00
   1    6    8     5     1    1.0432E+01  2.2686E-01   1.0205E+01  0.000E+00  0.000E+00  0.000E+00  1.05868E+03  6.790E-01  1.542E+01  6.166E-02  1.226E+00
   1    7    7     5     2    1.0205E+01  2.7894E-01   9.9265E+00  0.000E+00  0.000E+00  0.000E+00  1.05417E+03  6.732E-01  1.519E+01  7.594E-02  1.224E+00
   1    8    7     5     3    9.9265E+00  1.9221E-01   9.7343E+00  0.000E+00  0.000E+00  0.000E+00  1.04992E+03  6.676E-01  1.497E+01  5.241E-02  1.223E+00
   1    8    6     5     4    9.7343E+00  1.3577E-01   9.5985E+00  0.000E+00  0.000E+00  0.000E+00  1.04691E+03  6.637E-01  1.482E+01  3.706E-02  1.221E+00
   1    9    6     6     1    3.2957E+01  2.6627E-01   3.2691E+01  0.000E+00  0.000E+00  0.000E+00  1.04417E+03  1.438E+00  1.200E+01  6.000E-02  1.479E+00
   1   10    7     6     2    3.2691E+01  2.6584E-01   3.2425E+01  0.000E+00  0.000E+00  0.000E+00  1.03961E+03  1.431E+00  1.200E+01  6.000E-02  1.477E+00
   1   11    7     6     3    3.2425E+01  2.6542E-01   3.2159E+01  0.000E+00  0.000E+00  0.000E+00  1.03506E+03  1.424E+00  1.200E+01  6.000E-02  1.475E+00
   1   12    7     6     4    3.2159E+01  2.6500E-01   3.1894E+01  0.000E+00  0.000E+00  0.000E+00  1.03051E+03  1.417E+00  1.200E+01  6.000E-02  1.472E+00
   1   13    7     6     5    3.1894E+01  3.4993E-03   3.1891E+01  0.000E+00  0.000E+00  0.000E+00  1.02732E+03  1.413E+00  1.200E+01  2.400E-02  4.860E-02
   1   14    9     7     1    1.5000E+02  1.3316E+00   1.4867E+02  0.000E+00  0.000E+00  0.000E+00  1.03987E+03  2.288E+00  5.529E+01  5.593E-01  7.936E-01
   1   13    8     7     2    1.4867E+02  1.8145E+00   1.4685E+02  0.000E+00  0.000E+00  0.000E+00  1.03478E+03  2.279E+00  5.526E+01  6.148E-01  9.838E-01
   1   13    7     7     3    1.4685E+02  1.4038E+00   1.4545E+02  0.000E+00  0.000E+00  0.000E+00  1.02969E+03  2.271E+00  5.522E+01  5.585E-01  8.379E-01
   1   13    6     8     1    1.7734E+02  8.5616E-01   1.7648E+02  0.000E+00  0.000E+00  0.000E+00  1.02487E+03  2.997E+00  4.345E+01  4.428E-01  6.445E-01
   1   13    5     8     2    1.7648E+02  9.2005E-02   1.7639E+02  0.000E+00  0.000E+00  0.000E+00  1.01862E+03  2.994E+00  4.341E+01  4.423E-01  6.933E-02
   1   13    4     8     3    1.7639E+02 -3.2421E+00   1.7963E+02  0.000E+00  0.000E+00  0.000E+00  1.01238E+03  3.004E+00  4.355E+01  4.438E+00 -2.435E-01
   1   13    3     8     4    1.7963E+02 -4.3427E+00   1.8398E+02  0.000E+00  0.000E+00  0.000E+00  1.00615E+03  3.027E+00  4.390E+01  4.473E+00 -3.236E-01
   1   13    2     8     5    1.8398E+02 -3.2978E+00   1.8728E+02  0.000E+00  0.000E+00  0.000E+00  9.99926E+02  3.051E+00  4.424E+01  4.508E+00 -2.438E-01
   1   13    1     8     6    1.8728E+02 -2.3653E+00   1.8964E+02  0.000E+00  0.000E+00  0.000E+00  9.94944E+02  3.069E+00  4.449E+01  2.720E+00 -2.898E-01



 UBDSV3 SAVING "           GW ET" ON UNIT  61 AT TIME STEP 2, STRESS PERIOD 5
 UBDSV3 SAVING "    UZF RECHARGE" ON UNIT  61 AT TIME STEP 2, STRESS PERIOD 5
 UBDSV3 SAVING " SURFACE LEAKAGE" ON UNIT  61 AT TIME STEP 2, STRESS PERIOD 5
 UBDSV3 SAVING "       HORT+DUNN" ON UNIT  61 AT TIME STEP 2, STRESS PERIOD 5
 UBDSV3 SAVING "  STORAGE CHANGE" ON UNIT  61 AT TIME STEP 2, STRESS PERIOD 5


UNSATURATED ZONE PACKAGE VOLUMETRIC BUDGET FOR  TIME STEP     2 STRESS PERIOD    5
  ------------------------------------------------------------------------------



     CUMULATIVE VOLUMES      L**3       RATES FOR THIS TIME STEP      L**3/T
     ------------------                 ------------------------

           IN:                                      IN:
           ---                                      ---
        INFILTRATION =     7560937.0553          INFILTRATION =           4.5387

          OUT:                                     OUT:
          ----                                     ----
              UZF ET =     7487024.6105                UZF ET =           5.5360
        UZF RECHARGE =       73224.0000          UZF RECHARGE =       0.0000E+00

            IN - OUT =         688.4448              IN - OUT =          -0.9974

          STORAGE:                                 STORAGE:
          --------                                 --------
      STORAGE CHANGE =         688.4959        STORAGE CHANGE =          -0.9974

 PERCENT DISCREPANCY IS DIFFERENCE BETWEEN IN-OUT MINUS CHANGE IN STORAGE
 DIVIDED BY THE AVERAGE OF IN AND OUT TIMES 100

 PERCENT DISCREPANCY =           0.00     PERCENT DISCREPANCY =           0.00






 

        AG WELLS          PERIOD    5   STEP   2
 AG WELL      1   LAYER   1   ROW     6   COL     4   RATE   -0.615197    
 AG WELL      2   LAYER   1   ROW     6   COL     5   RATE   -0.615197    
 AG WELL      3   LAYER   1   ROW     7   COL     4   RATE   -0.615197    
 AG WELL      4   LAYER   1   ROW     7   COL     5   RATE   -0.615197    
 AG WELL      5   LAYER   1   ROW     8   COL     4   RATE   -0.615197    
 AG WELL      6   LAYER   1   ROW     8   COL     5   RATE   -0.615197    
 
 

        GW IRRIGATION     PERIOD    5   STEP   2
 AG WELL      1   ROW     6   COL     4   RATE    0.615197    
 AG WELL      2   ROW     6   COL     5   RATE    0.615197    
 AG WELL      3   ROW     7   COL     4   RATE    0.615197    
 AG WELL      4   ROW     7   COL     5   RATE    0.615197    
 AG WELL      5   ROW     8   COL     4   RATE    0.615197    
 AG WELL      6   ROW     8   COL     5   RATE    0.615197    
 
1
  VOLUMETRIC BUDGET FOR AGRICULTURAL FIELDS AT  END OF TIME STEP    2, STRESS PERIOD   5
  ------------------------------------------------------------------------------

     CUMULATIVE VOLUMES      L**3       RATES FOR THIS TIME STEP      L**3/T
     ------------------                 ------------------------

           IN:                                      IN:
           ---                                      ---
           AG WELLS      =      652343.5000             AG WELLS      =           3.6912
      DIVERSION SEGMENTS =           0.0000        DIVERSION SEGMENTS =           0.0000
           GW IRRIGATION =           0.0000             GW IRRIGATION =           0.0000
           SW IRRIGATION =           0.0000             SW IRRIGATION =           0.0000
        SYSTEM LOSSES GW =           0.0000          SYSTEM LOSSES GW =           0.0000
        SYSTEM LOSSES SW =           0.0000          SYSTEM LOSSES SW =           0.0000

                TOTAL IN =      652343.5000                  TOTAL IN =           3.6912

          OUT:                                     OUT:
          ----                                     ----
           AG WELLS      =           0.0000             AG WELLS      =           0.0000
      DIVERSION SEGMENTS =           0.0000        DIVERSION SEGMENTS =           0.0000
           GW IRRIGATION =      652343.5000             GW IRRIGATION =           3.6912
           SW IRRIGATION =           0.0000             SW IRRIGATION =           0.0000
        SYSTEM LOSSES GW =           0.0000          SYSTEM LOSSES GW =           0.0000
        SYSTEM LOSSES SW =           0.0000          SYSTEM LOSSES SW =           0.0000

               TOTAL OUT =      652343.5000                 TOTAL OUT =           3.6912

                IN - OUT =           0.0000                  IN - OUT =           0.0000

     PERCENT DISCREPANCY =           0.00         PERCENT DISCREPANCY =           0.00



1
  VOLUMETRIC BUDGET FOR ENTIRE MODEL AT END OF TIME STEP    2, STRESS PERIOD   5
  ------------------------------------------------------------------------------

     CUMULATIVE VOLUMES      L**3       RATES FOR THIS TIME STEP      L**3/T
     ------------------                 ------------------------

           IN:                                      IN:
           ---                                      ---
             STORAGE     =     5542508.5000               STORAGE     =           7.0751
       CONSTANT HEAD     =           0.0000         CONSTANT HEAD     =           0.0000
     HEAD DEP BOUNDS     =     2326674.0000       HEAD DEP BOUNDS     =           0.2855
      STREAM LEAKAGE     =   101009216.0000        STREAM LEAKAGE     =          11.6071
        UZF RECHARGE     =       73223.9531          UZF RECHARGE     =           0.0000
               GW ET     =           0.0000                 GW ET     =           0.0000
     SURFACE LEAKAGE     =           0.0000       SURFACE LEAKAGE     =           0.0000
           AG WELLS      =           0.0000             AG WELLS      =           0.0000

                TOTAL IN =   108951624.0000                  TOTAL IN =          18.9678

          OUT:                                     OUT:
          ----                                     ----
             STORAGE     =    22628556.0000               STORAGE     =           1.4433
       CONSTANT HEAD     =           0.0000         CONSTANT HEAD     =           0.0000
     HEAD DEP BOUNDS     =     2379787.0000       HEAD DEP BOUNDS     =           0.2969
      STREAM LEAKAGE     =    83232472.0000        STREAM LEAKAGE     =          13.2480
        UZF RECHARGE     =           0.0000          UZF RECHARGE     =           0.0000
               GW ET     =       63605.7500                 GW ET     =           0.2882
     SURFACE LEAKAGE     =           0.0000       SURFACE LEAKAGE     =           0.0000
           AG WELLS      =      652343.5000             AG WELLS      =           3.6912

               TOTAL OUT =   108956768.0000                 TOTAL OUT =          18.9676

                IN - OUT =       -5144.0000                  IN - OUT =       1.4114E-04

     PERCENT DISCREPANCY =          -0.00         PERCENT DISCREPANCY =           0.00






         TIME SUMMARY AT END OF TIME STEP    2 IN STRESS PERIOD    5
                    SECONDS     MINUTES      HOURS       DAYS        YEARS
                    -----------------------------------------------------------
   TIME STEP LENGTH  87667.      1461.1      24.352      1.0147     2.77799E-03
 STRESS PERIOD TIME 1.75333E+05  2922.2      48.704      2.0293     5.55598E-03
         TOTAL TIME 8.15173E+06 1.35862E+05  2264.4      94.349     0.25831    
1
 
 SOLVING FOR HEAD 
                                                   Max.-Head-Change                         Max.-Flux-Residual
  Residual-Control   Outer-Iter.   Inner-Iter.     Column Row Layer    Maximum-Head-Change  Column Row Layer    Maximum-Flux-Residual          L2-NORM 
          0                 1           2             4   13     1      -0.1482687625E-01       4   13    1        -0.8683452140E+00      0.1506281733E+01
          0                 2           2             4    7     1      -0.1157124621E-01       5    6    1        -0.6258325164E+00      0.1534874125E+01
          0                 3           2             4    7     1       0.7875876389E-03       5    6    1         0.4378556071E-01      0.1073520509E+00
          0                 4           1             4    7     1      -0.3133885923E-04       5    6    1        -0.1790608113E-02      0.4388393411E-02

    ------------------------------------------------
       NWT REQUIRED            4 OUTER ITERATIONS 
       AND A TOTAL OF          7 INNER ITERATIONS.
    ------------------------------------------------

 OUTPUT CONTROL FOR STRESS PERIOD    5   TIME STEP    3
    PRINT BUDGET
    SAVE BUDGET
 UBDSV1 SAVING "         STORAGE" ON UNIT 102 AT TIME STEP 3, STRESS PERIOD 5
 UBDSV2 SAVING "   CONSTANT HEAD" ON UNIT 102 AT TIME STEP 3, STRESS PERIOD 5
 UBDSV1 SAVING "FLOW RIGHT FACE " ON UNIT 102 AT TIME STEP 3, STRESS PERIOD 5
 UBDSV1 SAVING "FLOW FRONT FACE " ON UNIT 102 AT TIME STEP 3, STRESS PERIOD 5

  HEAD DEP BOUNDS   PERIOD    5   STEP     3
 BOUNDARY      1   LAYER   1   ROW    13   COL     1   RATE   -0.296640    
 BOUNDARY      2   LAYER   1   ROW    14   COL     9   RATE    0.285472    



 STREAM LISTING     PERIOD      5   STEP        3

 LAYER ROW COL. STREAM  RCH.  FLOW INTO     FLOW TO   FLOW OUT OF   OVRLND.     DIRECT     STREAM       STREAM     STREAM     STREAM   STREAMBED  STREAMBED
                SEG.NO.  NO.  STRM. RCH.    AQUIFER    STRM. RCH.    RUNOFF     PRECIP       ET          HEAD       DEPTH      WIDTH   CONDCTNC.   GRADIENT

   1    1    1     1     1    2.8000E+01  2.5860E-01   2.7741E+01  0.000E+00  0.000E+00  0.000E+00  1.09427E+03  1.221E+00  1.361E+01  6.126E-02  1.407E+00
   1    2    2     1     2    2.7741E+01  4.0002E-01   2.7341E+01  0.000E+00  0.000E+00  0.000E+00  1.08928E+03  1.217E+00  1.355E+01  9.487E-02  1.406E+00
   1    3    3     1     3    2.7341E+01  3.4070E-01   2.7001E+01  0.000E+00  0.000E+00  0.000E+00  1.08363E+03  1.212E+00  1.348E+01  8.090E-02  1.404E+00
   1    3    4     1     4    2.7001E+01  3.1335E-01   2.6687E+01  0.000E+00  0.000E+00  0.000E+00  1.07861E+03  1.207E+00  1.342E+01  7.448E-02  1.402E+00
   1    4    5     2     1    2.4687E+01  3.2711E-01   2.4360E+01  0.000E+00  0.000E+00  0.000E+00  1.07313E+03  1.194E+00  1.200E+01  7.800E-02  1.398E+00
   1    5    6     2     2    2.4360E+01  2.5111E-01   2.4109E+01  0.000E+00  0.000E+00  0.000E+00  1.06769E+03  1.185E+00  1.200E+01  6.000E-02  1.395E+00
   1    6    6     2     3    2.4109E+01  2.5067E-01   2.3858E+01  0.000E+00  0.000E+00  0.000E+00  1.06297E+03  1.178E+00  1.200E+01  6.000E-02  1.393E+00
   1    7    6     2     4    2.3858E+01  2.5023E-01   2.3608E+01  0.000E+00  0.000E+00  0.000E+00  1.05825E+03  1.170E+00  1.200E+01  6.000E-02  1.390E+00
   1    8    6     2     5    2.3608E+01  2.4978E-01   2.3358E+01  0.000E+00  0.000E+00  0.000E+00  1.05352E+03  1.163E+00  1.200E+01  6.000E-02  1.388E+00
   1    3    5     3     1    2.0000E+00  2.8252E-01   1.7175E+00  0.000E+00  0.000E+00  0.000E+00  1.07555E+03  1.909E+00  9.636E+00  7.227E-02  1.955E+00
   1    3    6     3     2    1.7175E+00  2.4905E-01   1.4684E+00  0.000E+00  0.000E+00  0.000E+00  1.07264E+03  1.727E+00  8.909E+00  6.682E-02  1.864E+00
   1    3    7     3     3    1.4684E+00  1.9718E-01   1.2712E+00  0.000E+00  0.000E+00  0.000E+00  1.06987E+03  1.555E+00  8.218E+00  5.547E-02  1.777E+00
   1    4    8     3     4    1.2712E+00  2.2567E-01   1.0456E+00  0.000E+00  0.000E+00  0.000E+00  1.06682E+03  1.364E+00  7.455E+00  6.709E-02  1.682E+00
   1    5    8     3     5    1.0456E+00  1.5790E-01   8.8768E-01  0.000E+00  0.000E+00  0.000E+00  1.06362E+03  1.164E+00  6.655E+00  4.991E-02  1.582E+00
   1    6    8     3     6    8.8768E-01  5.5980E-02   8.3170E-01  0.000E+00  0.000E+00  0.000E+00  1.06158E+03  1.036E+00  6.145E+00  1.844E-02  1.518E+00
   1    5   10     4     1    1.0000E+01  9.0919E-02   9.9091E+00  0.000E+00  0.000E+00  0.000E+00  1.07836E+03  6.368E-01  1.000E+01  2.500E-02  1.212E+00
   1    5    9     4     2    9.9091E+00  1.8158E-01   9.7275E+00  0.000E+00  0.000E+00  0.000E+00  1.07154E+03  6.315E-01  1.000E+01  5.000E-02  1.211E+00
   1    6    8     4     3    9.7275E+00  1.2689E-01   9.6006E+00  0.000E+00  0.000E+00  0.000E+00  1.06381E+03  6.256E-01  1.000E+01  3.500E-02  1.209E+00
   1    6    8     5     1    1.0432E+01  2.2686E-01   1.0205E+01  0.000E+00  0.000E+00  0.000E+00  1.05868E+03  6.790E-01  1.542E+01  6.166E-02  1.226E+00
   1    7    7     5     2    1.0205E+01  2.7894E-01   9.9265E+00  0.000E+00  0.000E+00  0.000E+00  1.05417E+03  6.732E-01  1.519E+01  7.594E-02  1.224E+00
   1    8    7     5     3    9.9265E+00  1.9221E-01   9.7343E+00  0.000E+00  0.000E+00  0.000E+00  1.04992E+03  6.676E-01  1.497E+01  5.241E-02  1.223E+00
   1    8    6     5     4    9.7343E+00  1.3577E-01   9.5985E+00  0.000E+00  0.000E+00  0.000E+00  1.04691E+03  6.637E-01  1.482E+01  3.706E-02  1.221E+00
   1    9    6     6     1    3.2957E+01  2.6627E-01   3.2691E+01  0.000E+00  0.000E+00  0.000E+00  1.04417E+03  1.438E+00  1.200E+01  6.000E-02  1.479E+00
   1   10    7     6     2    3.2691E+01  2.6584E-01   3.2425E+01  0.000E+00  0.000E+00  0.000E+00  1.03961E+03  1.431E+00  1.200E+01  6.000E-02  1.477E+00
   1   11    7     6     3    3.2425E+01  2.6542E-01   3.2159E+01  0.000E+00  0.000E+00  0.000E+00  1.03506E+03  1.424E+00  1.200E+01  6.000E-02  1.475E+00
   1   12    7     6     4    3.2159E+01  2.6500E-01   3.1894E+01  0.000E+00  0.000E+00  0.000E+00  1.03051E+03  1.417E+00  1.200E+01  6.000E-02  1.472E+00
   1   13    7     6     5    3.1894E+01  3.4885E-03   3.1891E+01  0.000E+00  0.000E+00  0.000E+00  1.02732E+03  1.413E+00  1.200E+01  2.400E-02  4.845E-02
   1   14    9     7     1    1.5000E+02  1.3316E+00   1.4867E+02  0.000E+00  0.000E+00  0.000E+00  1.03987E+03  2.288E+00  5.529E+01  5.593E-01  7.936E-01
   1   13    8     7     2    1.4867E+02  1.8143E+00   1.4685E+02  0.000E+00  0.000E+00  0.000E+00  1.03478E+03  2.279E+00  5.526E+01  6.148E-01  9.837E-01
   1   13    7     7     3    1.4685E+02  1.4036E+00   1.4545E+02  0.000E+00  0.000E+00  0.000E+00  1.02969E+03  2.271E+00  5.522E+01  5.585E-01  8.378E-01
   1   13    6     8     1    1.7734E+02  8.5687E-01   1.7648E+02  0.000E+00  0.000E+00  0.000E+00  1.02487E+03  2.997E+00  4.345E+01  4.428E-01  6.451E-01
   1   13    5     8     2    1.7648E+02  9.2469E-02   1.7639E+02  0.000E+00  0.000E+00  0.000E+00  1.01862E+03  2.994E+00  4.341E+01  4.423E-01  6.968E-02
   1   13    4     8     3    1.7639E+02 -3.1829E+00   1.7957E+02  0.000E+00  0.000E+00  0.000E+00  1.01238E+03  3.003E+00  4.355E+01  4.438E+00 -2.391E-01
   1   13    3     8     4    1.7957E+02 -4.2869E+00   1.8386E+02  0.000E+00  0.000E+00  0.000E+00  1.00615E+03  3.027E+00  4.389E+01  4.473E+00 -3.195E-01
   1   13    2     8     5    1.8386E+02 -3.2456E+00   1.8711E+02  0.000E+00  0.000E+00  0.000E+00  9.99925E+02  3.050E+00  4.423E+01  4.507E+00 -2.400E-01
   1   13    1     8     6    1.8711E+02 -2.3492E+00   1.8946E+02  0.000E+00  0.000E+00  0.000E+00  9.94943E+02  3.067E+00  4.448E+01  2.720E+00 -2.879E-01



 UBDSV3 SAVING "           GW ET" ON UNIT  61 AT TIME STEP 3, STRESS PERIOD 5
 UBDSV3 SAVING "    UZF RECHARGE" ON UNIT  61 AT TIME STEP 3, STRESS PERIOD 5
 UBDSV3 SAVING " SURFACE LEAKAGE" ON UNIT  61 AT TIME STEP 3, STRESS PERIOD 5
 UBDSV3 SAVING "       HORT+DUNN" ON UNIT  61 AT TIME STEP 3, STRESS PERIOD 5
 UBDSV3 SAVING "  STORAGE CHANGE" ON UNIT  61 AT TIME STEP 3, STRESS PERIOD 5


UNSATURATED ZONE PACKAGE VOLUMETRIC BUDGET FOR  TIME STEP     3 STRESS PERIOD    5
  ------------------------------------------------------------------------------



     CUMULATIVE VOLUMES      L**3       RATES FOR THIS TIME STEP      L**3/T
     ------------------                 ------------------------

           IN:                                      IN:
           ---                                      ---
        INFILTRATION =     7961354.5356          INFILTRATION =           4.5675

          OUT:                                     OUT:
          ----                                     ----
              UZF ET =     7887442.0908                UZF ET =           4.5675
        UZF RECHARGE =       73224.0000          UZF RECHARGE =       0.0000E+00

            IN - OUT =         688.4448              IN - OUT =       0.0000E+00

          STORAGE:                                 STORAGE:
          --------                                 --------
      STORAGE CHANGE =         688.4959        STORAGE CHANGE =      -2.8666E-12

 PERCENT DISCREPANCY IS DIFFERENCE BETWEEN IN-OUT MINUS CHANGE IN STORAGE
 DIVIDED BY THE AVERAGE OF IN AND OUT TIMES 100

 PERCENT DISCREPANCY =           0.00     PERCENT DISCREPANCY =           0.00






 

        AG WELLS          PERIOD    5   STEP   3
 AG WELL      1   LAYER   1   ROW     6   COL     4   RATE   -0.620000    
 AG WELL      2   LAYER   1   ROW     6   COL     5   RATE   -0.620000    
 AG WELL      3   LAYER   1   ROW     7   COL     4   RATE   -0.620000    
 AG WELL      4   LAYER   1   ROW     7   COL     5   RATE   -0.620000    
 AG WELL      5   LAYER   1   ROW     8   COL     4   RATE   -0.620000    
 AG WELL      6   LAYER   1   ROW     8   COL     5   RATE   -0.620000    
 
 

        GW IRRIGATION     PERIOD    5   STEP   3
 AG WELL      1   ROW     6   COL     4   RATE    0.620000    
 AG WELL      2   ROW     6   COL     5   RATE    0.620000    
 AG WELL      3   ROW     7   COL     4   RATE    0.620000    
 AG WELL      4   ROW     7   COL     5   RATE    0.620000    
 AG WELL      5   ROW     8   COL     4   RATE    0.620000    
 AG WELL      6   ROW     8   COL     5   RATE    0.620000    
 
1
  VOLUMETRIC BUDGET FOR AGRICULTURAL FIELDS AT  END OF TIME STEP    3, STRESS PERIOD   5
  ------------------------------------------------------------------------------

     CUMULATIVE VOLUMES      L**3       RATES FOR THIS TIME STEP      L**3/T
     ------------------                 ------------------------

           IN:                                      IN:
           ---                                      ---
           AG WELLS      =      978463.5000             AG WELLS      =           3.7200
      DIVERSION SEGMENTS =           0.0000        DIVERSION SEGMENTS =           0.0000
           GW IRRIGATION =           0.0000             GW IRRIGATION =           0.0000
           SW IRRIGATION =           0.0000             SW IRRIGATION =           0.0000
        SYSTEM LOSSES GW =           0.0000          SYSTEM LOSSES GW =           0.0000
        SYSTEM LOSSES SW =           0.0000          SYSTEM LOSSES SW =           0.0000

                TOTAL IN =      978463.5000                  TOTAL IN =           3.7200

          OUT:                                     OUT:
          ----                                     ----
           AG WELLS      =           0.0000             AG WELLS      =           0.0000
      DIVERSION SEGMENTS =           0.0000        DIVERSION SEGMENTS =           0.0000
           GW IRRIGATION =      978463.5000             GW IRRIGATION =           3.7200
           SW IRRIGATION =           0.0000             SW IRRIGATION =           0.0000
        SYSTEM LOSSES GW =           0.0000          SYSTEM LOSSES GW =           0.0000
        SYSTEM LOSSES SW =           0.0000          SYSTEM LOSSES SW =           0.0000

               TOTAL OUT =      978463.5000                 TOTAL OUT =           3.7200

                IN - OUT =           0.0000                  IN - OUT =           0.0000

     PERCENT DISCREPANCY =           0.00         PERCENT DISCREPANCY =           0.00



1
  VOLUMETRIC BUDGET FOR ENTIRE MODEL AT END OF TIME STEP    3, STRESS PERIOD   5
  ------------------------------------------------------------------------------

     CUMULATIVE VOLUMES      L**3       RATES FOR THIS TIME STEP      L**3/T
     ------------------                 ------------------------

           IN:                                      IN:
           ---                                      ---
             STORAGE     =     6141099.0000               STORAGE     =           6.8280
       CONSTANT HEAD     =           0.0000         CONSTANT HEAD     =           0.0000
     HEAD DEP BOUNDS     =     2351700.5000       HEAD DEP BOUNDS     =           0.2855
      STREAM LEAKAGE     =   102026840.0000        STREAM LEAKAGE     =          11.6079
        UZF RECHARGE     =       73223.9531          UZF RECHARGE     =           0.0000
               GW ET     =           0.0000                 GW ET     =           0.0000
     SURFACE LEAKAGE     =           0.0000       SURFACE LEAKAGE     =           0.0000
           AG WELLS      =           0.0000             AG WELLS      =           0.0000

                TOTAL IN =   110592864.0000                  TOTAL IN =          18.7214

          OUT:                                     OUT:
          ----                                     ----
             STORAGE     =    22749936.0000               STORAGE     =           1.3846
       CONSTANT HEAD     =           0.0000         CONSTANT HEAD     =           0.0000
     HEAD DEP BOUNDS     =     2405792.5000       HEAD DEP BOUNDS     =           0.2966
      STREAM LEAKAGE     =    84377800.0000        STREAM LEAKAGE     =          13.0646
        UZF RECHARGE     =           0.0000          UZF RECHARGE     =           0.0000
               GW ET     =       86005.3750                 GW ET     =           0.2555
     SURFACE LEAKAGE     =           0.0000       SURFACE LEAKAGE     =           0.0000
           AG WELLS      =      978463.5000             AG WELLS      =           3.7200

               TOTAL OUT =   110598000.0000                 TOTAL OUT =          18.7213

                IN - OUT =       -5136.0000                  IN - OUT =       1.4305E-04

     PERCENT DISCREPANCY =          -0.00         PERCENT DISCREPANCY =           0.00






         TIME SUMMARY AT END OF TIME STEP    3 IN STRESS PERIOD    5
                    SECONDS     MINUTES      HOURS       DAYS        YEARS
                    -----------------------------------------------------------
   TIME STEP LENGTH  87667.      1461.1      24.352      1.0147     2.77799E-03
 STRESS PERIOD TIME 2.63000E+05  4383.3      73.056      3.0440     8.33397E-03
         TOTAL TIME 8.23939E+06 1.37323E+05  2288.7      95.363     0.26109    
1
 
 SOLVING FOR HEAD 
                                                   Max.-Head-Change                         Max.-Flux-Residual
  Residual-Control   Outer-Iter.   Inner-Iter.     Column Row Layer    Maximum-Head-Change  Column Row Layer    Maximum-Flux-Residual          L2-NORM 
          0                 1           2             4   13     1      -0.1316263129E-01       4   13    1        -0.7705520944E+00      0.1375863189E+01
          0                 2           2             4    7     1      -0.1157916831E-01       5    6    1        -0.6273294234E+00      0.1536285573E+01
          0                 3           2             4    7     1       0.7881271101E-03       5    6    1         0.4389060897E-01      0.1074564926E+00
          0                 4           1             4    7     1      -0.3136032546E-04       5    6    1        -0.1794930288E-02      0.4392910930E-02

    ------------------------------------------------
       NWT REQUIRED            4 OUTER ITERATIONS 
       AND A TOTAL OF          7 INNER ITERATIONS.
    ------------------------------------------------

 OUTPUT CONTROL FOR STRESS PERIOD    5   TIME STEP    4
    PRINT BUDGET
    SAVE BUDGET
 UBDSV1 SAVING "         STORAGE" ON UNIT 102 AT TIME STEP 4, STRESS PERIOD 5
 UBDSV2 SAVING "   CONSTANT HEAD" ON UNIT 102 AT TIME STEP 4, STRESS PERIOD 5
 UBDSV1 SAVING "FLOW RIGHT FACE " ON UNIT 102 AT TIME STEP 4, STRESS PERIOD 5
 UBDSV1 SAVING "FLOW FRONT FACE " ON UNIT 102 AT TIME STEP 4, STRESS PERIOD 5

  HEAD DEP BOUNDS   PERIOD    5   STEP     4
 BOUNDARY      1   LAYER   1   ROW    13   COL     1   RATE   -0.296394    
 BOUNDARY      2   LAYER   1   ROW    14   COL     9   RATE    0.285473    



 STREAM LISTING     PERIOD      5   STEP        4

 LAYER ROW COL. STREAM  RCH.  FLOW INTO     FLOW TO   FLOW OUT OF   OVRLND.     DIRECT     STREAM       STREAM     STREAM     STREAM   STREAMBED  STREAMBED
                SEG.NO.  NO.  STRM. RCH.    AQUIFER    STRM. RCH.    RUNOFF     PRECIP       ET          HEAD       DEPTH      WIDTH   CONDCTNC.   GRADIENT

   1    1    1     1     1    2.8000E+01  2.5860E-01   2.7741E+01  0.000E+00  0.000E+00  0.000E+00  1.09427E+03  1.221E+00  1.361E+01  6.126E-02  1.407E+00
   1    2    2     1     2    2.7741E+01  4.0002E-01   2.7341E+01  0.000E+00  0.000E+00  0.000E+00  1.08928E+03  1.217E+00  1.355E+01  9.487E-02  1.406E+00
   1    3    3     1     3    2.7341E+01  3.4070E-01   2.7001E+01  0.000E+00  0.000E+00  0.000E+00  1.08363E+03  1.212E+00  1.348E+01  8.090E-02  1.404E+00
   1    3    4     1     4    2.7001E+01  3.1335E-01   2.6687E+01  0.000E+00  0.000E+00  0.000E+00  1.07861E+03  1.207E+00  1.342E+01  7.448E-02  1.402E+00
   1    4    5     2     1    2.4687E+01  3.2711E-01   2.4360E+01  0.000E+00  0.000E+00  0.000E+00  1.07313E+03  1.194E+00  1.200E+01  7.800E-02  1.398E+00
   1    5    6     2     2    2.4360E+01  2.5111E-01   2.4109E+01  0.000E+00  0.000E+00  0.000E+00  1.06769E+03  1.185E+00  1.200E+01  6.000E-02  1.395E+00
   1    6    6     2     3    2.4109E+01  2.5067E-01   2.3858E+01  0.000E+00  0.000E+00  0.000E+00  1.06297E+03  1.178E+00  1.200E+01  6.000E-02  1.393E+00
   1    7    6     2     4    2.3858E+01  2.5023E-01   2.3608E+01  0.000E+00  0.000E+00  0.000E+00  1.05825E+03  1.170E+00  1.200E+01  6.000E-02  1.390E+00
   1    8    6     2     5    2.3608E+01  2.4978E-01   2.3358E+01  0.000E+00  0.000E+00  0.000E+00  1.05352E+03  1.163E+00  1.200E+01  6.000E-02  1.388E+00
   1    3    5     3     1    2.0000E+00  2.8252E-01   1.7175E+00  0.000E+00  0.000E+00  0.000E+00  1.07555E+03  1.909E+00  9.636E+00  7.227E-02  1.955E+00
   1    3    6     3     2    1.7175E+00  2.4905E-01   1.4684E+00  0.000E+00  0.000E+00  0.000E+00  1.07264E+03  1.727E+00  8.909E+00  6.682E-02  1.864E+00
   1    3    7     3     3    1.4684E+00  1.9718E-01   1.2712E+00  0.000E+00  0.000E+00  0.000E+00  1.06987E+03  1.555E+00  8.218E+00  5.547E-02  1.777E+00
   1    4    8     3     4    1.2712E+00  2.2567E-01   1.0456E+00  0.000E+00  0.000E+00  0.000E+00  1.06682E+03  1.364E+00  7.455E+00  6.709E-02  1.682E+00
   1    5    8     3     5    1.0456E+00  1.5790E-01   8.8768E-01  0.000E+00  0.000E+00  0.000E+00  1.06362E+03  1.164E+00  6.655E+00  4.991E-02  1.582E+00
   1    6    8     3     6    8.8768E-01  5.5980E-02   8.3170E-01  0.000E+00  0.000E+00  0.000E+00  1.06158E+03  1.036E+00  6.145E+00  1.844E-02  1.518E+00
   1    5   10     4     1    1.0000E+01  9.0919E-02   9.9091E+00  0.000E+00  0.000E+00  0.000E+00  1.07836E+03  6.368E-01  1.000E+01  2.500E-02  1.212E+00
   1    5    9     4     2    9.9091E+00  1.8158E-01   9.7275E+00  0.000E+00  0.000E+00  0.000E+00  1.07154E+03  6.315E-01  1.000E+01  5.000E-02  1.211E+00
   1    6    8     4     3    9.7275E+00  1.2689E-01   9.6006E+00  0.000E+00  0.000E+00  0.000E+00  1.06381E+03  6.256E-01  1.000E+01  3.500E-02  1.209E+00
   1    6    8     5     1    1.0432E+01  2.2686E-01   1.0205E+01  0.000E+00  0.000E+00  0.000E+00  1.05868E+03  6.790E-01  1.542E+01  6.166E-02  1.226E+00
   1    7    7     5     2    1.0205E+01  2.7894E-01   9.9265E+00  0.000E+00  0.000E+00  0.000E+00  1.05417E+03  6.732E-01  1.519E+01  7.594E-02  1.224E+00
   1    8    7     5     3    9.9265E+00  1.9221E-01   9.7343E+00  0.000E+00  0.000E+00  0.000E+00  1.04992E+03  6.676E-01  1.497E+01  5.241E-02  1.223E+00
   1    8    6     5     4    9.7343E+00  1.3577E-01   9.5985E+00  0.000E+00  0.000E+00  0.000E+00  1.04691E+03  6.637E-01  1.482E+01  3.706E-02  1.221E+00
   1    9    6     6     1    3.2957E+01  2.6627E-01   3.2691E+01  0.000E+00  0.000E+00  0.000E+00  1.04417E+03  1.438E+00  1.200E+01  6.000E-02  1.479E+00
   1   10    7     6     2    3.2691E+01  2.6584E-01   3.2425E+01  0.000E+00  0.000E+00  0.000E+00  1.03961E+03  1.431E+00  1.200E+01  6.000E-02  1.477E+00
   1   11    7     6     3    3.2425E+01  2.6542E-01   3.2159E+01  0.000E+00  0.000E+00  0.000E+00  1.03506E+03  1.424E+00  1.200E+01  6.000E-02  1.475E+00
   1   12    7     6     4    3.2159E+01  2.6500E-01   3.1894E+01  0.000E+00  0.000E+00  0.000E+00  1.03051E+03  1.417E+00  1.200E+01  6.000E-02  1.472E+00
   1   13    7     6     5    3.1894E+01  3.4784E-03   3.1891E+01  0.000E+00  0.000E+00  0.000E+00  1.02732E+03  1.413E+00  1.200E+01  2.400E-02  4.831E-02
   1   14    9     7     1    1.5000E+02  1.3316E+00   1.4867E+02  0.000E+00  0.000E+00  0.000E+00  1.03987E+03  2.288E+00  5.529E+01  5.593E-01  7.936E-01
   1   13    8     7     2    1.4867E+02  1.8142E+00   1.4685E+02  0.000E+00  0.000E+00  0.000E+00  1.03478E+03  2.279E+00  5.526E+01  6.148E-01  9.836E-01
   1   13    7     7     3    1.4685E+02  1.4033E+00   1.4545E+02  0.000E+00  0.000E+00  0.000E+00  1.02969E+03  2.271E+00  5.522E+01  5.585E-01  8.376E-01
   1   13    6     8     1    1.7734E+02  8.5754E-01   1.7648E+02  0.000E+00  0.000E+00  0.000E+00  1.02487E+03  2.997E+00  4.345E+01  4.428E-01  6.456E-01
   1   13    5     8     2    1.7648E+02  9.2975E-02   1.7639E+02  0.000E+00  0.000E+00  0.000E+00  1.01862E+03  2.994E+00  4.341E+01  4.423E-01  7.006E-02
   1   13    4     8     3    1.7639E+02 -3.1303E+00   1.7952E+02  0.000E+00  0.000E+00  0.000E+00  1.01238E+03  3.003E+00  4.355E+01  4.438E+00 -2.351E-01
   1   13    3     8     4    1.7952E+02 -4.2365E+00   1.8376E+02  0.000E+00  0.000E+00  0.000E+00  1.00615E+03  3.026E+00  4.388E+01  4.472E+00 -3.158E-01
   1   13    2     8     5    1.8376E+02 -3.1973E+00   1.8696E+02  0.000E+00  0.000E+00  0.000E+00  9.99924E+02  3.050E+00  4.422E+01  4.506E+00 -2.365E-01
   1   13    1     8     6    1.8696E+02 -2.3335E+00   1.8929E+02  0.000E+00  0.000E+00  0.000E+00  9.94942E+02  3.066E+00  4.446E+01  2.719E+00 -2.861E-01



 UBDSV3 SAVING "           GW ET" ON UNIT  61 AT TIME STEP 4, STRESS PERIOD 5
 UBDSV3 SAVING "    UZF RECHARGE" ON UNIT  61 AT TIME STEP 4, STRESS PERIOD 5
 UBDSV3 SAVING " SURFACE LEAKAGE" ON UNIT  61 AT TIME STEP 4, STRESS PERIOD 5
 UBDSV3 SAVING "       HORT+DUNN" ON UNIT  61 AT TIME STEP 4, STRESS PERIOD 5
 UBDSV3 SAVING "  STORAGE CHANGE" ON UNIT  61 AT TIME STEP 4, STRESS PERIOD 5


UNSATURATED ZONE PACKAGE VOLUMETRIC BUDGET FOR  TIME STEP     4 STRESS PERIOD    5
  ------------------------------------------------------------------------------



     CUMULATIVE VOLUMES      L**3       RATES FOR THIS TIME STEP      L**3/T
     ------------------                 ------------------------

           IN:                                      IN:
           ---                                      ---
        INFILTRATION =     8361772.0158          INFILTRATION =           4.5675

          OUT:                                     OUT:
          ----                                     ----
              UZF ET =     8287859.5710                UZF ET =           4.5675
        UZF RECHARGE =       73224.0000          UZF RECHARGE =       0.0000E+00

            IN - OUT =         688.4448              IN - OUT =       0.0000E+00

          STORAGE:                                 STORAGE:
          --------                                 --------
      STORAGE CHANGE =         688.4959        STORAGE CHANGE =      -2.8666E-12

 PERCENT DISCREPANCY IS DIFFERENCE BETWEEN IN-OUT MINUS CHANGE IN STORAGE
 DIVIDED BY THE AVERAGE OF IN AND OUT TIMES 100

 PERCENT DISCREPANCY =           0.00     PERCENT DISCREPANCY =           0.00






 

        AG WELLS          PERIOD    5   STEP   4
 AG WELL      1   LAYER   1   ROW     6   COL     4   RATE   -0.620000    
 AG WELL      2   LAYER   1   ROW     6   COL     5   RATE   -0.620000    
 AG WELL      3   LAYER   1   ROW     7   COL     4   RATE   -0.620000    
 AG WELL      4   LAYER   1   ROW     7   COL     5   RATE   -0.620000    
 AG WELL      5   LAYER   1   ROW     8   COL     4   RATE   -0.620000    
 AG WELL      6   LAYER   1   ROW     8   COL     5   RATE   -0.620000    
 
 

        GW IRRIGATION     PERIOD    5   STEP   4
 AG WELL      1   ROW     6   COL     4   RATE    0.620000    
 AG WELL      2   ROW     6   COL     5   RATE    0.620000    
 AG WELL      3   ROW     7   COL     4   RATE    0.620000    
 AG WELL      4   ROW     7   COL     5   RATE    0.620000    
 AG WELL      5   ROW     8   COL     4   RATE    0.620000    
 AG WELL      6   ROW     8   COL     5   RATE    0.620000    
 
1
  VOLUMETRIC BUDGET FOR AGRICULTURAL FIELDS AT  END OF TIME STEP    4, STRESS PERIOD   5
  ------------------------------------------------------------------------------

     CUMULATIVE VOLUMES      L**3       RATES FOR THIS TIME STEP      L**3/T
     ------------------                 ------------------------

           IN:                                      IN:
           ---                                      ---
           AG WELLS      =     1304583.5000             AG WELLS      =           3.7200
      DIVERSION SEGMENTS =           0.0000        DIVERSION SEGMENTS =           0.0000
           GW IRRIGATION =           0.0000             GW IRRIGATION =           0.0000
           SW IRRIGATION =           0.0000             SW IRRIGATION =           0.0000
        SYSTEM LOSSES GW =           0.0000          SYSTEM LOSSES GW =           0.0000
        SYSTEM LOSSES SW =           0.0000          SYSTEM LOSSES SW =           0.0000

                TOTAL IN =     1304583.5000                  TOTAL IN =           3.7200

          OUT:                                     OUT:
          ----                                     ----
           AG WELLS      =           0.0000             AG WELLS      =           0.0000
      DIVERSION SEGMENTS =           0.0000        DIVERSION SEGMENTS =           0.0000
           GW IRRIGATION =     1304583.5000             GW IRRIGATION =           3.7200
           SW IRRIGATION =           0.0000             SW IRRIGATION =           0.0000
        SYSTEM LOSSES GW =           0.0000          SYSTEM LOSSES GW =           0.0000
        SYSTEM LOSSES SW =           0.0000          SYSTEM LOSSES SW =           0.0000

               TOTAL OUT =     1304583.5000                 TOTAL OUT =           3.7200

                IN - OUT =           0.0000                  IN - OUT =           0.0000

     PERCENT DISCREPANCY =           0.00         PERCENT DISCREPANCY =           0.00



1
  VOLUMETRIC BUDGET FOR ENTIRE MODEL AT END OF TIME STEP    4, STRESS PERIOD   5
  ------------------------------------------------------------------------------

     CUMULATIVE VOLUMES      L**3       RATES FOR THIS TIME STEP      L**3/T
     ------------------                 ------------------------

           IN:                                      IN:
           ---                                      ---
             STORAGE     =     6717559.5000               STORAGE     =           6.5756
       CONSTANT HEAD     =           0.0000         CONSTANT HEAD     =           0.0000
     HEAD DEP BOUNDS     =     2376727.0000       HEAD DEP BOUNDS     =           0.2855
      STREAM LEAKAGE     =   103044536.0000        STREAM LEAKAGE     =          11.6087
        UZF RECHARGE     =       73223.9531          UZF RECHARGE     =           0.0000
               GW ET     =           0.0000                 GW ET     =           0.0000
     SURFACE LEAKAGE     =           0.0000       SURFACE LEAKAGE     =           0.0000
           AG WELLS      =           0.0000             AG WELLS      =           0.0000

                TOTAL IN =   112212048.0000                  TOTAL IN =          18.4698

          OUT:                                     OUT:
          ----                                     ----
             STORAGE     =    22866470.0000               STORAGE     =           1.3293
       CONSTANT HEAD     =           0.0000         CONSTANT HEAD     =           0.0000
     HEAD DEP BOUNDS     =     2431776.2500       HEAD DEP BOUNDS     =           0.2964
      STREAM LEAKAGE     =    85508496.0000        STREAM LEAKAGE     =          12.8977
        UZF RECHARGE     =           0.0000          UZF RECHARGE     =           0.0000
               GW ET     =      105843.8125                 GW ET     =           0.2263
     SURFACE LEAKAGE     =           0.0000       SURFACE LEAKAGE     =           0.0000
           AG WELLS      =     1304583.5000             AG WELLS      =           3.7200

               TOTAL OUT =   112217168.0000                 TOTAL OUT =          18.4696

                IN - OUT =       -5120.0000                  IN - OUT =       1.4496E-04

     PERCENT DISCREPANCY =          -0.00         PERCENT DISCREPANCY =           0.00






         TIME SUMMARY AT END OF TIME STEP    4 IN STRESS PERIOD    5
                    SECONDS     MINUTES      HOURS       DAYS        YEARS
                    -----------------------------------------------------------
   TIME STEP LENGTH  87667.      1461.1      24.352      1.0147     2.77799E-03
 STRESS PERIOD TIME 3.50667E+05  5844.4      97.407      4.0586     1.11120E-02
         TOTAL TIME 8.32706E+06 1.38784E+05  2313.1      96.378     0.26387    
1
 
 SOLVING FOR HEAD 
                                                   Max.-Head-Change                         Max.-Flux-Residual
  Residual-Control   Outer-Iter.   Inner-Iter.     Column Row Layer    Maximum-Head-Change  Column Row Layer    Maximum-Flux-Residual          L2-NORM 
          0                 1           2             4   13     1      -0.1169038944E-01       4   13    1        -0.6840649092E+00      0.1261072688E+01
          0                 2           2             4    7     1      -0.1158740854E-01       5    6    1        -0.6287483470E+00      0.1537835326E+01
          0                 3           2             4    7     1       0.7886882449E-03       5    6    1         0.4399017968E-01      0.1075698134E+00
          0                 4           1             4    7     1      -0.3138265354E-04       5    6    1        -0.1799026589E-02      0.4397950088E-02

    ------------------------------------------------
       NWT REQUIRED            4 OUTER ITERATIONS 
       AND A TOTAL OF          7 INNER ITERATIONS.
    ------------------------------------------------

 NO OUTPUT CONTROL FOR STRESS PERIOD    5   TIME STEP    5
 
 SOLVING FOR HEAD 
                                                   Max.-Head-Change                         Max.-Flux-Residual
  Residual-Control   Outer-Iter.   Inner-Iter.     Column Row Layer    Maximum-Head-Change  Column Row Layer    Maximum-Flux-Residual          L2-NORM 
          0                 1           2             2   13     1      -0.1064182995E-01       4   13    1        -0.6075527766E+00      0.1160451455E+01
          0                 2           2             4    7     1      -0.1159595787E-01       5    6    1        -0.6300931472E+00      0.1539483351E+01
          0                 3           2             4    7     1       0.7892704271E-03       5    6    1         0.4408088803E-01      0.1076866625E+00
          0                 4           1             4    7     1      -0.3140581882E-04       5    6    1        -0.1802404174E-02      0.4402734904E-02

    ------------------------------------------------
       NWT REQUIRED            4 OUTER ITERATIONS 
       AND A TOTAL OF          7 INNER ITERATIONS.
    ------------------------------------------------

 OUTPUT CONTROL FOR STRESS PERIOD    5   TIME STEP    6
    PRINT BUDGET
    SAVE BUDGET
 UBDSV1 SAVING "         STORAGE" ON UNIT 102 AT TIME STEP 6, STRESS PERIOD 5
 UBDSV2 SAVING "   CONSTANT HEAD" ON UNIT 102 AT TIME STEP 6, STRESS PERIOD 5
 UBDSV1 SAVING "FLOW RIGHT FACE " ON UNIT 102 AT TIME STEP 6, STRESS PERIOD 5
 UBDSV1 SAVING "FLOW FRONT FACE " ON UNIT 102 AT TIME STEP 6, STRESS PERIOD 5

  HEAD DEP BOUNDS   PERIOD    5   STEP     6
 BOUNDARY      1   LAYER   1   ROW    13   COL     1   RATE   -0.295931    
 BOUNDARY      2   LAYER   1   ROW    14   COL     9   RATE    0.285474    



 STREAM LISTING     PERIOD      5   STEP        6

 LAYER ROW COL. STREAM  RCH.  FLOW INTO     FLOW TO   FLOW OUT OF   OVRLND.     DIRECT     STREAM       STREAM     STREAM     STREAM   STREAMBED  STREAMBED
                SEG.NO.  NO.  STRM. RCH.    AQUIFER    STRM. RCH.    RUNOFF     PRECIP       ET          HEAD       DEPTH      WIDTH   CONDCTNC.   GRADIENT

   1    1    1     1     1    2.8000E+01  2.5860E-01   2.7742E+01  0.000E+00  0.000E+00  0.000E+00  1.09427E+03  1.221E+00  1.361E+01  6.126E-02  1.407E+00
   1    2    2     1     2    2.7742E+01  4.0002E-01   2.7341E+01  0.000E+00  0.000E+00  0.000E+00  1.08928E+03  1.217E+00  1.355E+01  9.487E-02  1.406E+00
   1    3    3     1     3    2.7341E+01  3.4070E-01   2.7001E+01  0.000E+00  0.000E+00  0.000E+00  1.08363E+03  1.212E+00  1.348E+01  8.090E-02  1.404E+00
   1    3    4     1     4    2.7001E+01  3.1335E-01   2.6687E+01  0.000E+00  0.000E+00  0.000E+00  1.07861E+03  1.207E+00  1.342E+01  7.448E-02  1.402E+00
   1    4    5     2     1    2.4687E+01  3.2711E-01   2.4360E+01  0.000E+00  0.000E+00  0.000E+00  1.07313E+03  1.194E+00  1.200E+01  7.800E-02  1.398E+00
   1    5    6     2     2    2.4360E+01  2.5111E-01   2.4109E+01  0.000E+00  0.000E+00  0.000E+00  1.06769E+03  1.185E+00  1.200E+01  6.000E-02  1.395E+00
   1    6    6     2     3    2.4109E+01  2.5067E-01   2.3859E+01  0.000E+00  0.000E+00  0.000E+00  1.06297E+03  1.178E+00  1.200E+01  6.000E-02  1.393E+00
   1    7    6     2     4    2.3859E+01  2.5023E-01   2.3608E+01  0.000E+00  0.000E+00  0.000E+00  1.05825E+03  1.170E+00  1.200E+01  6.000E-02  1.390E+00
   1    8    6     2     5    2.3608E+01  2.4978E-01   2.3359E+01  0.000E+00  0.000E+00  0.000E+00  1.05352E+03  1.163E+00  1.200E+01  6.000E-02  1.388E+00
   1    3    5     3     1    2.0000E+00  2.8252E-01   1.7175E+00  0.000E+00  0.000E+00  0.000E+00  1.07555E+03  1.909E+00  9.636E+00  7.227E-02  1.955E+00
   1    3    6     3     2    1.7175E+00  2.4905E-01   1.4684E+00  0.000E+00  0.000E+00  0.000E+00  1.07264E+03  1.727E+00  8.909E+00  6.682E-02  1.864E+00
   1    3    7     3     3    1.4684E+00  1.9718E-01   1.2712E+00  0.000E+00  0.000E+00  0.000E+00  1.06987E+03  1.555E+00  8.218E+00  5.547E-02  1.777E+00
   1    4    8     3     4    1.2712E+00  2.2567E-01   1.0456E+00  0.000E+00  0.000E+00  0.000E+00  1.06682E+03  1.364E+00  7.455E+00  6.709E-02  1.682E+00
   1    5    8     3     5    1.0456E+00  1.5790E-01   8.8768E-01  0.000E+00  0.000E+00  0.000E+00  1.06362E+03  1.164E+00  6.655E+00  4.991E-02  1.582E+00
   1    6    8     3     6    8.8768E-01  5.5980E-02   8.3170E-01  0.000E+00  0.000E+00  0.000E+00  1.06158E+03  1.036E+00  6.145E+00  1.844E-02  1.518E+00
   1    5   10     4     1    1.0000E+01  9.0919E-02   9.9091E+00  0.000E+00  0.000E+00  0.000E+00  1.07836E+03  6.368E-01  1.000E+01  2.500E-02  1.212E+00
   1    5    9     4     2    9.9091E+00  1.8158E-01   9.7275E+00  0.000E+00  0.000E+00  0.000E+00  1.07154E+03  6.315E-01  1.000E+01  5.000E-02  1.211E+00
   1    6    8     4     3    9.7275E+00  1.2689E-01   9.6006E+00  0.000E+00  0.000E+00  0.000E+00  1.06381E+03  6.256E-01  1.000E+01  3.500E-02  1.209E+00
   1    6    8     5     1    1.0432E+01  2.2686E-01   1.0205E+01  0.000E+00  0.000E+00  0.000E+00  1.05868E+03  6.790E-01  1.542E+01  6.166E-02  1.226E+00
   1    7    7     5     2    1.0205E+01  2.7894E-01   9.9265E+00  0.000E+00  0.000E+00  0.000E+00  1.05417E+03  6.732E-01  1.519E+01  7.594E-02  1.224E+00
   1    8    7     5     3    9.9265E+00  1.9221E-01   9.7343E+00  0.000E+00  0.000E+00  0.000E+00  1.04992E+03  6.676E-01  1.497E+01  5.241E-02  1.223E+00
   1    8    6     5     4    9.7343E+00  1.3577E-01   9.5985E+00  0.000E+00  0.000E+00  0.000E+00  1.04691E+03  6.637E-01  1.482E+01  3.706E-02  1.221E+00
   1    9    6     6     1    3.2957E+01  2.6627E-01   3.2691E+01  0.000E+00  0.000E+00  0.000E+00  1.04417E+03  1.438E+00  1.200E+01  6.000E-02  1.479E+00
   1   10    7     6     2    3.2691E+01  2.6585E-01   3.2425E+01  0.000E+00  0.000E+00  0.000E+00  1.03961E+03  1.431E+00  1.200E+01  6.000E-02  1.477E+00
   1   11    7     6     3    3.2425E+01  2.6542E-01   3.2160E+01  0.000E+00  0.000E+00  0.000E+00  1.03506E+03  1.424E+00  1.200E+01  6.000E-02  1.475E+00
   1   12    7     6     4    3.2160E+01  2.6500E-01   3.1895E+01  0.000E+00  0.000E+00  0.000E+00  1.03051E+03  1.417E+00  1.200E+01  6.000E-02  1.472E+00
   1   13    7     6     5    3.1895E+01  3.4601E-03   3.1891E+01  0.000E+00  0.000E+00  0.000E+00  1.02732E+03  1.413E+00  1.200E+01  2.400E-02  4.806E-02
   1   14    9     7     1    1.5000E+02  1.3316E+00   1.4867E+02  0.000E+00  0.000E+00  0.000E+00  1.03987E+03  2.288E+00  5.529E+01  5.593E-01  7.936E-01
   1   13    8     7     2    1.4867E+02  1.8139E+00   1.4685E+02  0.000E+00  0.000E+00  0.000E+00  1.03478E+03  2.279E+00  5.526E+01  6.148E-01  9.835E-01
   1   13    7     7     3    1.4685E+02  1.4029E+00   1.4545E+02  0.000E+00  0.000E+00  0.000E+00  1.02969E+03  2.271E+00  5.522E+01  5.585E-01  8.374E-01
   1   13    6     8     1    1.7734E+02  8.5882E-01   1.7648E+02  0.000E+00  0.000E+00  0.000E+00  1.02487E+03  2.997E+00  4.345E+01  4.428E-01  6.465E-01
   1   13    5     8     2    1.7648E+02  9.4079E-02   1.7639E+02  0.000E+00  0.000E+00  0.000E+00  1.01862E+03  2.994E+00  4.341E+01  4.423E-01  7.090E-02
   1   13    4     8     3    1.7639E+02 -3.0422E+00   1.7943E+02  0.000E+00  0.000E+00  0.000E+00  1.01238E+03  3.003E+00  4.354E+01  4.437E+00 -2.285E-01
   1   13    3     8     4    1.7943E+02 -4.1505E+00   1.8358E+02  0.000E+00  0.000E+00  0.000E+00  1.00615E+03  3.026E+00  4.387E+01  4.471E+00 -3.095E-01
   1   13    2     8     5    1.8358E+02 -3.1110E+00   1.8669E+02  0.000E+00  0.000E+00  0.000E+00  9.99923E+02  3.048E+00  4.420E+01  4.504E+00 -2.302E-01
   1   13    1     8     6    1.8669E+02 -2.3037E+00   1.8900E+02  0.000E+00  0.000E+00  0.000E+00  9.94940E+02  3.065E+00  4.444E+01  2.717E+00 -2.826E-01



 UBDSV3 SAVING "           GW ET" ON UNIT  61 AT TIME STEP 6, STRESS PERIOD 5
 UBDSV3 SAVING "    UZF RECHARGE" ON UNIT  61 AT TIME STEP 6, STRESS PERIOD 5
 UBDSV3 SAVING " SURFACE LEAKAGE" ON UNIT  61 AT TIME STEP 6, STRESS PERIOD 5
 UBDSV3 SAVING "       HORT+DUNN" ON UNIT  61 AT TIME STEP 6, STRESS PERIOD 5
 UBDSV3 SAVING "  STORAGE CHANGE" ON UNIT  61 AT TIME STEP 6, STRESS PERIOD 5


UNSATURATED ZONE PACKAGE VOLUMETRIC BUDGET FOR  TIME STEP     6 STRESS PERIOD    5
  ------------------------------------------------------------------------------



     CUMULATIVE VOLUMES      L**3       RATES FOR THIS TIME STEP      L**3/T
     ------------------                 ------------------------

           IN:                                      IN:
           ---                                      ---
        INFILTRATION =     9162606.9763          INFILTRATION =           4.5675

          OUT:                                     OUT:
          ----                                     ----
              UZF ET =     9088694.5315                UZF ET =           4.5675
        UZF RECHARGE =       73224.0000          UZF RECHARGE =       0.0000E+00

            IN - OUT =         688.4448              IN - OUT =       0.0000E+00

          STORAGE:                                 STORAGE:
          --------                                 --------
      STORAGE CHANGE =         688.4959        STORAGE CHANGE =      -2.8666E-12

 PERCENT DISCREPANCY IS DIFFERENCE BETWEEN IN-OUT MINUS CHANGE IN STORAGE
 DIVIDED BY THE AVERAGE OF IN AND OUT TIMES 100

 PERCENT DISCREPANCY =           0.00     PERCENT DISCREPANCY =           0.00






 

        AG WELLS          PERIOD    5   STEP   6
 AG WELL      1   LAYER   1   ROW     6   COL     4   RATE   -0.620000    
 AG WELL      2   LAYER   1   ROW     6   COL     5   RATE   -0.620000    
 AG WELL      3   LAYER   1   ROW     7   COL     4   RATE   -0.620000    
 AG WELL      4   LAYER   1   ROW     7   COL     5   RATE   -0.620000    
 AG WELL      5   LAYER   1   ROW     8   COL     4   RATE   -0.620000    
 AG WELL      6   LAYER   1   ROW     8   COL     5   RATE   -0.620000    
 
 

        GW IRRIGATION     PERIOD    5   STEP   6
 AG WELL      1   ROW     6   COL     4   RATE    0.620000    
 AG WELL      2   ROW     6   COL     5   RATE    0.620000    
 AG WELL      3   ROW     7   COL     4   RATE    0.620000    
 AG WELL      4   ROW     7   COL     5   RATE    0.620000    
 AG WELL      5   ROW     8   COL     4   RATE    0.620000    
 AG WELL      6   ROW     8   COL     5   RATE    0.620000    
 
1
  VOLUMETRIC BUDGET FOR AGRICULTURAL FIELDS AT  END OF TIME STEP    6, STRESS PERIOD   5
  ------------------------------------------------------------------------------

     CUMULATIVE VOLUMES      L**3       RATES FOR THIS TIME STEP      L**3/T
     ------------------                 ------------------------

           IN:                                      IN:
           ---                                      ---
           AG WELLS      =     1956823.5000             AG WELLS      =           3.7200
      DIVERSION SEGMENTS =           0.0000        DIVERSION SEGMENTS =           0.0000
           GW IRRIGATION =           0.0000             GW IRRIGATION =           0.0000
           SW IRRIGATION =           0.0000             SW IRRIGATION =           0.0000
        SYSTEM LOSSES GW =           0.0000          SYSTEM LOSSES GW =           0.0000
        SYSTEM LOSSES SW =           0.0000          SYSTEM LOSSES SW =           0.0000

                TOTAL IN =     1956823.5000                  TOTAL IN =           3.7200

          OUT:                                     OUT:
          ----                                     ----
           AG WELLS      =           0.0000             AG WELLS      =           0.0000
      DIVERSION SEGMENTS =           0.0000        DIVERSION SEGMENTS =           0.0000
           GW IRRIGATION =     1956823.5000             GW IRRIGATION =           3.7200
           SW IRRIGATION =           0.0000             SW IRRIGATION =           0.0000
        SYSTEM LOSSES GW =           0.0000          SYSTEM LOSSES GW =           0.0000
        SYSTEM LOSSES SW =           0.0000          SYSTEM LOSSES SW =           0.0000

               TOTAL OUT =     1956823.5000                 TOTAL OUT =           3.7200

                IN - OUT =           0.0000                  IN - OUT =           0.0000

     PERCENT DISCREPANCY =           0.00         PERCENT DISCREPANCY =           0.00



1
  VOLUMETRIC BUDGET FOR ENTIRE MODEL AT END OF TIME STEP    6, STRESS PERIOD   5
  ------------------------------------------------------------------------------

     CUMULATIVE VOLUMES      L**3       RATES FOR THIS TIME STEP      L**3/T
     ------------------                 ------------------------

           IN:                                      IN:
           ---                                      ---
             STORAGE     =     7814576.5000               STORAGE     =           6.1579
       CONSTANT HEAD     =           0.0000         CONSTANT HEAD     =           0.0000
     HEAD DEP BOUNDS     =     2426780.0000       HEAD DEP BOUNDS     =           0.2855
      STREAM LEAKAGE     =   105080144.0000        STREAM LEAKAGE     =          11.6104
        UZF RECHARGE     =       73223.9531          UZF RECHARGE     =           0.0000
               GW ET     =           0.0000                 GW ET     =           0.0000
     SURFACE LEAKAGE     =           0.0000       SURFACE LEAKAGE     =           0.0000
           AG WELLS      =           0.0000             AG WELLS      =           0.0000

                TOTAL IN =   115394728.0000                  TOTAL IN =          18.0537

          OUT:                                     OUT:
          ----                                     ----
             STORAGE     =    23089314.0000               STORAGE     =           1.2535
       CONSTANT HEAD     =           0.0000         CONSTANT HEAD     =           0.0000
     HEAD DEP BOUNDS     =     2483682.7500       HEAD DEP BOUNDS     =           0.2959
      STREAM LEAKAGE     =    87731112.0000        STREAM LEAKAGE     =          12.6073
        UZF RECHARGE     =           0.0000          UZF RECHARGE     =           0.0000
               GW ET     =      138892.1094                 GW ET     =           0.1768
     SURFACE LEAKAGE     =           0.0000       SURFACE LEAKAGE     =           0.0000
           AG WELLS      =     1956823.5000             AG WELLS      =           3.7200

               TOTAL OUT =   115399832.0000                 TOTAL OUT =          18.0536

                IN - OUT =       -5104.0000                  IN - OUT =       1.4496E-04

     PERCENT DISCREPANCY =          -0.00         PERCENT DISCREPANCY =           0.00






         TIME SUMMARY AT END OF TIME STEP    6 IN STRESS PERIOD    5
                    SECONDS     MINUTES      HOURS       DAYS        YEARS
                    -----------------------------------------------------------
   TIME STEP LENGTH  87667.      1461.1      24.352      1.0147     2.77799E-03
 STRESS PERIOD TIME 5.26000E+05  8766.7      146.11      6.0880     1.66679E-02
         TOTAL TIME 8.50239E+06 1.41707E+05  2361.8      98.407     0.26942    
1
 
 SOLVING FOR HEAD 
                                                   Max.-Head-Change                         Max.-Flux-Residual
  Residual-Control   Outer-Iter.   Inner-Iter.     Column Row Layer    Maximum-Head-Change  Column Row Layer    Maximum-Flux-Residual          L2-NORM 
          0                 1           2             2   13     1      -0.9847489750E-02       2   13    1        -0.5543477441E+00      0.1072714497E+01
          0                 2           2             4    7     1      -0.1160478196E-01       5    6    1        -0.6313673207E+00      0.1541196644E+01
          0                 3           2             5    7     1       0.7868203950E-03       5    6    1         0.4417059615E-01      0.1077013334E+00
          0                 4           1             5    7     1      -0.3130836953E-04       5    6    1        -0.1806123306E-02      0.4403540153E-02

    ------------------------------------------------
       NWT REQUIRED            4 OUTER ITERATIONS 
       AND A TOTAL OF          7 INNER ITERATIONS.
    ------------------------------------------------

 OUTPUT CONTROL FOR STRESS PERIOD    5   TIME STEP    7
    PRINT BUDGET
    SAVE BUDGET
 UBDSV1 SAVING "         STORAGE" ON UNIT 102 AT TIME STEP 7, STRESS PERIOD 5
 UBDSV2 SAVING "   CONSTANT HEAD" ON UNIT 102 AT TIME STEP 7, STRESS PERIOD 5
 UBDSV1 SAVING "FLOW RIGHT FACE " ON UNIT 102 AT TIME STEP 7, STRESS PERIOD 5
 UBDSV1 SAVING "FLOW FRONT FACE " ON UNIT 102 AT TIME STEP 7, STRESS PERIOD 5

  HEAD DEP BOUNDS   PERIOD    5   STEP     7
 BOUNDARY      1   LAYER   1   ROW    13   COL     1   RATE   -0.295713    
 BOUNDARY      2   LAYER   1   ROW    14   COL     9   RATE    0.285475    



 STREAM LISTING     PERIOD      5   STEP        7

 LAYER ROW COL. STREAM  RCH.  FLOW INTO     FLOW TO   FLOW OUT OF   OVRLND.     DIRECT     STREAM       STREAM     STREAM     STREAM   STREAMBED  STREAMBED
                SEG.NO.  NO.  STRM. RCH.    AQUIFER    STRM. RCH.    RUNOFF     PRECIP       ET          HEAD       DEPTH      WIDTH   CONDCTNC.   GRADIENT

   1    1    1     1     1    2.8000E+01  2.5860E-01   2.7742E+01  0.000E+00  0.000E+00  0.000E+00  1.09427E+03  1.221E+00  1.361E+01  6.126E-02  1.407E+00
   1    2    2     1     2    2.7742E+01  4.0002E-01   2.7341E+01  0.000E+00  0.000E+00  0.000E+00  1.08928E+03  1.217E+00  1.355E+01  9.487E-02  1.406E+00
   1    3    3     1     3    2.7341E+01  3.4070E-01   2.7001E+01  0.000E+00  0.000E+00  0.000E+00  1.08363E+03  1.212E+00  1.348E+01  8.090E-02  1.404E+00
   1    3    4     1     4    2.7001E+01  3.1335E-01   2.6687E+01  0.000E+00  0.000E+00  0.000E+00  1.07861E+03  1.207E+00  1.342E+01  7.448E-02  1.402E+00
   1    4    5     2     1    2.4687E+01  3.2711E-01   2.4360E+01  0.000E+00  0.000E+00  0.000E+00  1.07313E+03  1.194E+00  1.200E+01  7.800E-02  1.398E+00
   1    5    6     2     2    2.4360E+01  2.5111E-01   2.4109E+01  0.000E+00  0.000E+00  0.000E+00  1.06769E+03  1.185E+00  1.200E+01  6.000E-02  1.395E+00
   1    6    6     2     3    2.4109E+01  2.5067E-01   2.3859E+01  0.000E+00  0.000E+00  0.000E+00  1.06297E+03  1.178E+00  1.200E+01  6.000E-02  1.393E+00
   1    7    6     2     4    2.3859E+01  2.5023E-01   2.3608E+01  0.000E+00  0.000E+00  0.000E+00  1.05825E+03  1.170E+00  1.200E+01  6.000E-02  1.390E+00
   1    8    6     2     5    2.3608E+01  2.4978E-01   2.3359E+01  0.000E+00  0.000E+00  0.000E+00  1.05352E+03  1.163E+00  1.200E+01  6.000E-02  1.388E+00
   1    3    5     3     1    2.0000E+00  2.8252E-01   1.7175E+00  0.000E+00  0.000E+00  0.000E+00  1.07555E+03  1.909E+00  9.636E+00  7.227E-02  1.955E+00
   1    3    6     3     2    1.7175E+00  2.4905E-01   1.4684E+00  0.000E+00  0.000E+00  0.000E+00  1.07264E+03  1.727E+00  8.909E+00  6.682E-02  1.864E+00
   1    3    7     3     3    1.4684E+00  1.9718E-01   1.2712E+00  0.000E+00  0.000E+00  0.000E+00  1.06987E+03  1.555E+00  8.218E+00  5.547E-02  1.777E+00
   1    4    8     3     4    1.2712E+00  2.2567E-01   1.0456E+00  0.000E+00  0.000E+00  0.000E+00  1.06682E+03  1.364E+00  7.455E+00  6.709E-02  1.682E+00
   1    5    8     3     5    1.0456E+00  1.5790E-01   8.8768E-01  0.000E+00  0.000E+00  0.000E+00  1.06362E+03  1.164E+00  6.655E+00  4.991E-02  1.582E+00
   1    6    8     3     6    8.8768E-01  5.5980E-02   8.3170E-01  0.000E+00  0.000E+00  0.000E+00  1.06158E+03  1.036E+00  6.145E+00  1.844E-02  1.518E+00
   1    5   10     4     1    1.0000E+01  9.0919E-02   9.9091E+00  0.000E+00  0.000E+00  0.000E+00  1.07836E+03  6.368E-01  1.000E+01  2.500E-02  1.212E+00
   1    5    9     4     2    9.9091E+00  1.8158E-01   9.7275E+00  0.000E+00  0.000E+00  0.000E+00  1.07154E+03  6.315E-01  1.000E+01  5.000E-02  1.211E+00
   1    6    8     4     3    9.7275E+00  1.2689E-01   9.6006E+00  0.000E+00  0.000E+00  0.000E+00  1.06381E+03  6.256E-01  1.000E+01  3.500E-02  1.209E+00
   1    6    8     5     1    1.0432E+01  2.2686E-01   1.0205E+01  0.000E+00  0.000E+00  0.000E+00  1.05868E+03  6.790E-01  1.542E+01  6.166E-02  1.226E+00
   1    7    7     5     2    1.0205E+01  2.7894E-01   9.9265E+00  0.000E+00  0.000E+00  0.000E+00  1.05417E+03  6.732E-01  1.519E+01  7.594E-02  1.224E+00
   1    8    7     5     3    9.9265E+00  1.9221E-01   9.7343E+00  0.000E+00  0.000E+00  0.000E+00  1.04992E+03  6.676E-01  1.497E+01  5.241E-02  1.223E+00
   1    8    6     5     4    9.7343E+00  1.3577E-01   9.5985E+00  0.000E+00  0.000E+00  0.000E+00  1.04691E+03  6.637E-01  1.482E+01  3.706E-02  1.221E+00
   1    9    6     6     1    3.2957E+01  2.6627E-01   3.2691E+01  0.000E+00  0.000E+00  0.000E+00  1.04417E+03  1.438E+00  1.200E+01  6.000E-02  1.479E+00
   1   10    7     6     2    3.2691E+01  2.6585E-01   3.2425E+01  0.000E+00  0.000E+00  0.000E+00  1.03961E+03  1.431E+00  1.200E+01  6.000E-02  1.477E+00
   1   11    7     6     3    3.2425E+01  2.6542E-01   3.2160E+01  0.000E+00  0.000E+00  0.000E+00  1.03506E+03  1.424E+00  1.200E+01  6.000E-02  1.475E+00
   1   12    7     6     4    3.2160E+01  2.6500E-01   3.1895E+01  0.000E+00  0.000E+00  0.000E+00  1.03051E+03  1.417E+00  1.200E+01  6.000E-02  1.472E+00
   1   13    7     6     5    3.1895E+01  3.4517E-03   3.1891E+01  0.000E+00  0.000E+00  0.000E+00  1.02732E+03  1.413E+00  1.200E+01  2.400E-02  4.794E-02
   1   14    9     7     1    1.5000E+02  1.3316E+00   1.4867E+02  0.000E+00  0.000E+00  0.000E+00  1.03987E+03  2.288E+00  5.529E+01  5.593E-01  7.936E-01
   1   13    8     7     2    1.4867E+02  1.8137E+00   1.4685E+02  0.000E+00  0.000E+00  0.000E+00  1.03478E+03  2.279E+00  5.526E+01  6.148E-01  9.834E-01
   1   13    7     7     3    1.4685E+02  1.4027E+00   1.4545E+02  0.000E+00  0.000E+00  0.000E+00  1.02969E+03  2.271E+00  5.522E+01  5.585E-01  8.372E-01
   1   13    6     8     1    1.7734E+02  8.5941E-01   1.7648E+02  0.000E+00  0.000E+00  0.000E+00  1.02487E+03  2.997E+00  4.345E+01  4.428E-01  6.470E-01
   1   13    5     8     2    1.7648E+02  9.4662E-02   1.7639E+02  0.000E+00  0.000E+00  0.000E+00  1.01862E+03  2.994E+00  4.341E+01  4.423E-01  7.133E-02
   1   13    4     8     3    1.7639E+02 -3.0053E+00   1.7939E+02  0.000E+00  0.000E+00  0.000E+00  1.01238E+03  3.003E+00  4.354E+01  4.437E+00 -2.258E-01
   1   13    3     8     4    1.7939E+02 -4.1137E+00   1.8351E+02  0.000E+00  0.000E+00  0.000E+00  1.00615E+03  3.025E+00  4.387E+01  4.470E+00 -3.068E-01
   1   13    2     8     5    1.8351E+02 -3.0725E+00   1.8658E+02  0.000E+00  0.000E+00  0.000E+00  9.99923E+02  3.048E+00  4.419E+01  4.503E+00 -2.274E-01
   1   13    1     8     6    1.8658E+02 -2.2896E+00   1.8887E+02  0.000E+00  0.000E+00  0.000E+00  9.94939E+02  3.064E+00  4.443E+01  2.716E+00 -2.809E-01



 UBDSV3 SAVING "           GW ET" ON UNIT  61 AT TIME STEP 7, STRESS PERIOD 5
 UBDSV3 SAVING "    UZF RECHARGE" ON UNIT  61 AT TIME STEP 7, STRESS PERIOD 5
 UBDSV3 SAVING " SURFACE LEAKAGE" ON UNIT  61 AT TIME STEP 7, STRESS PERIOD 5
 UBDSV3 SAVING "       HORT+DUNN" ON UNIT  61 AT TIME STEP 7, STRESS PERIOD 5
 UBDSV3 SAVING "  STORAGE CHANGE" ON UNIT  61 AT TIME STEP 7, STRESS PERIOD 5


UNSATURATED ZONE PACKAGE VOLUMETRIC BUDGET FOR  TIME STEP     7 STRESS PERIOD    5
  ------------------------------------------------------------------------------



     CUMULATIVE VOLUMES      L**3       RATES FOR THIS TIME STEP      L**3/T
     ------------------                 ------------------------

           IN:                                      IN:
           ---                                      ---
        INFILTRATION =     9563024.4566          INFILTRATION =           4.5675

          OUT:                                     OUT:
          ----                                     ----
              UZF ET =     9489112.0118                UZF ET =           4.5675
        UZF RECHARGE =       73224.0000          UZF RECHARGE =       0.0000E+00

            IN - OUT =         688.4448              IN - OUT =       0.0000E+00

          STORAGE:                                 STORAGE:
          --------                                 --------
      STORAGE CHANGE =         688.4959        STORAGE CHANGE =      -2.8666E-12

 PERCENT DISCREPANCY IS DIFFERENCE BETWEEN IN-OUT MINUS CHANGE IN STORAGE
 DIVIDED BY THE AVERAGE OF IN AND OUT TIMES 100

 PERCENT DISCREPANCY =          -0.00     PERCENT DISCREPANCY =           0.00






 

        AG WELLS          PERIOD    5   STEP   7
 AG WELL      1   LAYER   1   ROW     6   COL     4   RATE   -0.620000    
 AG WELL      2   LAYER   1   ROW     6   COL     5   RATE   -0.620000    
 AG WELL      3   LAYER   1   ROW     7   COL     4   RATE   -0.620000    
 AG WELL      4   LAYER   1   ROW     7   COL     5   RATE   -0.620000    
 AG WELL      5   LAYER   1   ROW     8   COL     4   RATE   -0.620000    
 AG WELL      6   LAYER   1   ROW     8   COL     5   RATE   -0.620000    
 
 

        GW IRRIGATION     PERIOD    5   STEP   7
 AG WELL      1   ROW     6   COL     4   RATE    0.620000    
 AG WELL      2   ROW     6   COL     5   RATE    0.620000    
 AG WELL      3   ROW     7   COL     4   RATE    0.620000    
 AG WELL      4   ROW     7   COL     5   RATE    0.620000    
 AG WELL      5   ROW     8   COL     4   RATE    0.620000    
 AG WELL      6   ROW     8   COL     5   RATE    0.620000    
 
1
  VOLUMETRIC BUDGET FOR AGRICULTURAL FIELDS AT  END OF TIME STEP    7, STRESS PERIOD   5
  ------------------------------------------------------------------------------

     CUMULATIVE VOLUMES      L**3       RATES FOR THIS TIME STEP      L**3/T
     ------------------                 ------------------------

           IN:                                      IN:
           ---                                      ---
           AG WELLS      =     2282943.5000             AG WELLS      =           3.7200
      DIVERSION SEGMENTS =           0.0000        DIVERSION SEGMENTS =           0.0000
           GW IRRIGATION =           0.0000             GW IRRIGATION =           0.0000
           SW IRRIGATION =           0.0000             SW IRRIGATION =           0.0000
        SYSTEM LOSSES GW =           0.0000          SYSTEM LOSSES GW =           0.0000
        SYSTEM LOSSES SW =           0.0000          SYSTEM LOSSES SW =           0.0000

                TOTAL IN =     2282943.5000                  TOTAL IN =           3.7200

          OUT:                                     OUT:
          ----                                     ----
           AG WELLS      =           0.0000             AG WELLS      =           0.0000
      DIVERSION SEGMENTS =           0.0000        DIVERSION SEGMENTS =           0.0000
           GW IRRIGATION =     2282943.5000             GW IRRIGATION =           3.7200
           SW IRRIGATION =           0.0000             SW IRRIGATION =           0.0000
        SYSTEM LOSSES GW =           0.0000          SYSTEM LOSSES GW =           0.0000
        SYSTEM LOSSES SW =           0.0000          SYSTEM LOSSES SW =           0.0000

               TOTAL OUT =     2282943.5000                 TOTAL OUT =           3.7200

                IN - OUT =           0.0000                  IN - OUT =           0.0000

     PERCENT DISCREPANCY =           0.00         PERCENT DISCREPANCY =           0.00



1
  VOLUMETRIC BUDGET FOR ENTIRE MODEL AT END OF TIME STEP    7, STRESS PERIOD   5
  ------------------------------------------------------------------------------

     CUMULATIVE VOLUMES      L**3       RATES FOR THIS TIME STEP      L**3/T
     ------------------                 ------------------------

           IN:                                      IN:
           ---                                      ---
             STORAGE     =     8338535.0000               STORAGE     =           5.9767
       CONSTANT HEAD     =           0.0000         CONSTANT HEAD     =           0.0000
     HEAD DEP BOUNDS     =     2451806.7500       HEAD DEP BOUNDS     =           0.2855
      STREAM LEAKAGE     =   106098056.0000        STREAM LEAKAGE     =          11.6112
        UZF RECHARGE     =       73223.9531          UZF RECHARGE     =           0.0000
               GW ET     =           0.0000                 GW ET     =           0.0000
     SURFACE LEAKAGE     =           0.0000       SURFACE LEAKAGE     =           0.0000
           AG WELLS      =           0.0000             AG WELLS      =           0.0000

                TOTAL IN =   116961624.0000                  TOTAL IN =          17.8734

          OUT:                                     OUT:
          ----                                     ----
             STORAGE     =    23196310.0000               STORAGE     =           1.2205
       CONSTANT HEAD     =           0.0000         CONSTANT HEAD     =           0.0000
     HEAD DEP BOUNDS     =     2509607.0000       HEAD DEP BOUNDS     =           0.2957
      STREAM LEAKAGE     =    88825288.0000        STREAM LEAKAGE     =          12.4811
        UZF RECHARGE     =           0.0000          UZF RECHARGE     =           0.0000
               GW ET     =      152559.1719                 GW ET     =           0.1559
     SURFACE LEAKAGE     =           0.0000       SURFACE LEAKAGE     =           0.0000
           AG WELLS      =     2282943.5000             AG WELLS      =           3.7200

               TOTAL OUT =   116966704.0000                 TOTAL OUT =          17.8732

                IN - OUT =       -5080.0000                  IN - OUT =       1.4687E-04

     PERCENT DISCREPANCY =          -0.00         PERCENT DISCREPANCY =           0.00






         TIME SUMMARY AT END OF TIME STEP    7 IN STRESS PERIOD    5
                    SECONDS     MINUTES      HOURS       DAYS        YEARS
                    -----------------------------------------------------------
   TIME STEP LENGTH  87667.      1461.1      24.352      1.0147     2.77799E-03
 STRESS PERIOD TIME 6.13667E+05  10228.      170.46      7.1026     1.94459E-02
         TOTAL TIME 8.59006E+06 1.43168E+05  2386.1      99.422     0.27220    
1
 
 SOLVING FOR HEAD 
                                                   Max.-Head-Change                         Max.-Flux-Residual
  Residual-Control   Outer-Iter.   Inner-Iter.     Column Row Layer    Maximum-Head-Change  Column Row Layer    Maximum-Flux-Residual          L2-NORM 
          0                 1           2             2   13     1      -0.9111265316E-02       2   13    1        -0.5129297404E+00      0.9966912637E+00
          0                 2           2             4    7     1      -0.1161979732E-01       5    6    1        -0.6325773746E+00      0.1542943102E+01
          0                 3           2             4    7     1       0.7908949415E-03       5    6    1         0.4425577979E-01      0.1079355705E+00
          0                 4           1             4    7     1      -0.3147045330E-04       5    6    1        -0.1809653858E-02      0.4413298676E-02

    ------------------------------------------------
       NWT REQUIRED            4 OUTER ITERATIONS 
       AND A TOTAL OF          7 INNER ITERATIONS.
    ------------------------------------------------

 OUTPUT CONTROL FOR STRESS PERIOD    5   TIME STEP    8
    PRINT BUDGET
    SAVE BUDGET
 UBDSV1 SAVING "         STORAGE" ON UNIT 102 AT TIME STEP 8, STRESS PERIOD 5
 UBDSV2 SAVING "   CONSTANT HEAD" ON UNIT 102 AT TIME STEP 8, STRESS PERIOD 5
 UBDSV1 SAVING "FLOW RIGHT FACE " ON UNIT 102 AT TIME STEP 8, STRESS PERIOD 5
 UBDSV1 SAVING "FLOW FRONT FACE " ON UNIT 102 AT TIME STEP 8, STRESS PERIOD 5

  HEAD DEP BOUNDS   PERIOD    5   STEP     8
 BOUNDARY      1   LAYER   1   ROW    13   COL     1   RATE   -0.295504    
 BOUNDARY      2   LAYER   1   ROW    14   COL     9   RATE    0.285475    



 STREAM LISTING     PERIOD      5   STEP        8

 LAYER ROW COL. STREAM  RCH.  FLOW INTO     FLOW TO   FLOW OUT OF   OVRLND.     DIRECT     STREAM       STREAM     STREAM     STREAM   STREAMBED  STREAMBED
                SEG.NO.  NO.  STRM. RCH.    AQUIFER    STRM. RCH.    RUNOFF     PRECIP       ET          HEAD       DEPTH      WIDTH   CONDCTNC.   GRADIENT

   1    1    1     1     1    2.8000E+01  2.5860E-01   2.7742E+01  0.000E+00  0.000E+00  0.000E+00  1.09427E+03  1.221E+00  1.361E+01  6.126E-02  1.407E+00
   1    2    2     1     2    2.7742E+01  4.0002E-01   2.7341E+01  0.000E+00  0.000E+00  0.000E+00  1.08928E+03  1.217E+00  1.355E+01  9.487E-02  1.406E+00
   1    3    3     1     3    2.7341E+01  3.4070E-01   2.7001E+01  0.000E+00  0.000E+00  0.000E+00  1.08363E+03  1.212E+00  1.348E+01  8.090E-02  1.404E+00
   1    3    4     1     4    2.7001E+01  3.1335E-01   2.6687E+01  0.000E+00  0.000E+00  0.000E+00  1.07861E+03  1.207E+00  1.342E+01  7.448E-02  1.402E+00
   1    4    5     2     1    2.4687E+01  3.2711E-01   2.4360E+01  0.000E+00  0.000E+00  0.000E+00  1.07313E+03  1.194E+00  1.200E+01  7.800E-02  1.398E+00
   1    5    6     2     2    2.4360E+01  2.5111E-01   2.4109E+01  0.000E+00  0.000E+00  0.000E+00  1.06769E+03  1.185E+00  1.200E+01  6.000E-02  1.395E+00
   1    6    6     2     3    2.4109E+01  2.5067E-01   2.3859E+01  0.000E+00  0.000E+00  0.000E+00  1.06297E+03  1.178E+00  1.200E+01  6.000E-02  1.393E+00
   1    7    6     2     4    2.3859E+01  2.5023E-01   2.3608E+01  0.000E+00  0.000E+00  0.000E+00  1.05825E+03  1.170E+00  1.200E+01  6.000E-02  1.390E+00
   1    8    6     2     5    2.3608E+01  2.4978E-01   2.3359E+01  0.000E+00  0.000E+00  0.000E+00  1.05352E+03  1.163E+00  1.200E+01  6.000E-02  1.388E+00
   1    3    5     3     1    2.0000E+00  2.8252E-01   1.7175E+00  0.000E+00  0.000E+00  0.000E+00  1.07555E+03  1.909E+00  9.636E+00  7.227E-02  1.955E+00
   1    3    6     3     2    1.7175E+00  2.4905E-01   1.4684E+00  0.000E+00  0.000E+00  0.000E+00  1.07264E+03  1.727E+00  8.909E+00  6.682E-02  1.864E+00
   1    3    7     3     3    1.4684E+00  1.9718E-01   1.2712E+00  0.000E+00  0.000E+00  0.000E+00  1.06987E+03  1.555E+00  8.218E+00  5.547E-02  1.777E+00
   1    4    8     3     4    1.2712E+00  2.2567E-01   1.0456E+00  0.000E+00  0.000E+00  0.000E+00  1.06682E+03  1.364E+00  7.455E+00  6.709E-02  1.682E+00
   1    5    8     3     5    1.0456E+00  1.5790E-01   8.8768E-01  0.000E+00  0.000E+00  0.000E+00  1.06362E+03  1.164E+00  6.655E+00  4.991E-02  1.582E+00
   1    6    8     3     6    8.8768E-01  5.5980E-02   8.3170E-01  0.000E+00  0.000E+00  0.000E+00  1.06158E+03  1.036E+00  6.145E+00  1.844E-02  1.518E+00
   1    5   10     4     1    1.0000E+01  9.0919E-02   9.9091E+00  0.000E+00  0.000E+00  0.000E+00  1.07836E+03  6.368E-01  1.000E+01  2.500E-02  1.212E+00
   1    5    9     4     2    9.9091E+00  1.8158E-01   9.7275E+00  0.000E+00  0.000E+00  0.000E+00  1.07154E+03  6.315E-01  1.000E+01  5.000E-02  1.211E+00
   1    6    8     4     3    9.7275E+00  1.2689E-01   9.6006E+00  0.000E+00  0.000E+00  0.000E+00  1.06381E+03  6.256E-01  1.000E+01  3.500E-02  1.209E+00
   1    6    8     5     1    1.0432E+01  2.2686E-01   1.0205E+01  0.000E+00  0.000E+00  0.000E+00  1.05868E+03  6.790E-01  1.542E+01  6.166E-02  1.226E+00
   1    7    7     5     2    1.0205E+01  2.7894E-01   9.9265E+00  0.000E+00  0.000E+00  0.000E+00  1.05417E+03  6.732E-01  1.519E+01  7.594E-02  1.224E+00
   1    8    7     5     3    9.9265E+00  1.9221E-01   9.7343E+00  0.000E+00  0.000E+00  0.000E+00  1.04992E+03  6.676E-01  1.497E+01  5.241E-02  1.223E+00
   1    8    6     5     4    9.7343E+00  1.3577E-01   9.5985E+00  0.000E+00  0.000E+00  0.000E+00  1.04691E+03  6.637E-01  1.482E+01  3.706E-02  1.221E+00
   1    9    6     6     1    3.2957E+01  2.6627E-01   3.2691E+01  0.000E+00  0.000E+00  0.000E+00  1.04417E+03  1.438E+00  1.200E+01  6.000E-02  1.479E+00
   1   10    7     6     2    3.2691E+01  2.6585E-01   3.2425E+01  0.000E+00  0.000E+00  0.000E+00  1.03961E+03  1.431E+00  1.200E+01  6.000E-02  1.477E+00
   1   11    7     6     3    3.2425E+01  2.6542E-01   3.2160E+01  0.000E+00  0.000E+00  0.000E+00  1.03506E+03  1.424E+00  1.200E+01  6.000E-02  1.475E+00
   1   12    7     6     4    3.2160E+01  2.6500E-01   3.1895E+01  0.000E+00  0.000E+00  0.000E+00  1.03051E+03  1.417E+00  1.200E+01  6.000E-02  1.472E+00
   1   13    7     6     5    3.1895E+01  3.4439E-03   3.1891E+01  0.000E+00  0.000E+00  0.000E+00  1.02732E+03  1.413E+00  1.200E+01  2.400E-02  4.783E-02
   1   14    9     7     1    1.5000E+02  1.3317E+00   1.4867E+02  0.000E+00  0.000E+00  0.000E+00  1.03987E+03  2.288E+00  5.529E+01  5.593E-01  7.936E-01
   1   13    8     7     2    1.4867E+02  1.8136E+00   1.4685E+02  0.000E+00  0.000E+00  0.000E+00  1.03478E+03  2.279E+00  5.526E+01  6.148E-01  9.833E-01
   1   13    7     7     3    1.4685E+02  1.4025E+00   1.4545E+02  0.000E+00  0.000E+00  0.000E+00  1.02969E+03  2.271E+00  5.522E+01  5.585E-01  8.371E-01
   1   13    6     8     1    1.7734E+02  8.5998E-01   1.7648E+02  0.000E+00  0.000E+00  0.000E+00  1.02487E+03  2.997E+00  4.345E+01  4.428E-01  6.474E-01
   1   13    5     8     2    1.7648E+02  9.5257E-02   1.7639E+02  0.000E+00  0.000E+00  0.000E+00  1.01862E+03  2.994E+00  4.341E+01  4.423E-01  7.178E-02
   1   13    4     8     3    1.7639E+02 -2.9725E+00   1.7936E+02  0.000E+00  0.000E+00  0.000E+00  1.01238E+03  3.003E+00  4.354E+01  4.437E+00 -2.233E-01
   1   13    3     8     4    1.7936E+02 -4.0807E+00   1.8344E+02  0.000E+00  0.000E+00  0.000E+00  1.00615E+03  3.025E+00  4.386E+01  4.470E+00 -3.043E-01
   1   13    2     8     5    1.8344E+02 -3.0369E+00   1.8648E+02  0.000E+00  0.000E+00  0.000E+00  9.99922E+02  3.047E+00  4.418E+01  4.502E+00 -2.248E-01
   1   13    1     8     6    1.8648E+02 -2.2759E+00   1.8875E+02  0.000E+00  0.000E+00  0.000E+00  9.94938E+02  3.063E+00  4.442E+01  2.716E+00 -2.793E-01



 UBDSV3 SAVING "           GW ET" ON UNIT  61 AT TIME STEP 8, STRESS PERIOD 5
 UBDSV3 SAVING "    UZF RECHARGE" ON UNIT  61 AT TIME STEP 8, STRESS PERIOD 5
 UBDSV3 SAVING " SURFACE LEAKAGE" ON UNIT  61 AT TIME STEP 8, STRESS PERIOD 5
 UBDSV3 SAVING "       HORT+DUNN" ON UNIT  61 AT TIME STEP 8, STRESS PERIOD 5
 UBDSV3 SAVING "  STORAGE CHANGE" ON UNIT  61 AT TIME STEP 8, STRESS PERIOD 5


UNSATURATED ZONE PACKAGE VOLUMETRIC BUDGET FOR  TIME STEP     8 STRESS PERIOD    5
  ------------------------------------------------------------------------------



     CUMULATIVE VOLUMES      L**3       RATES FOR THIS TIME STEP      L**3/T
     ------------------                 ------------------------

           IN:                                      IN:
           ---                                      ---
        INFILTRATION =     9963441.9368          INFILTRATION =           4.5675

          OUT:                                     OUT:
          ----                                     ----
              UZF ET =     9889529.4921                UZF ET =           4.5675
        UZF RECHARGE =       73224.0000          UZF RECHARGE =       0.0000E+00

            IN - OUT =         688.4448              IN - OUT =       0.0000E+00

          STORAGE:                                 STORAGE:
          --------                                 --------
      STORAGE CHANGE =         688.4959        STORAGE CHANGE =      -2.8666E-12

 PERCENT DISCREPANCY IS DIFFERENCE BETWEEN IN-OUT MINUS CHANGE IN STORAGE
 DIVIDED BY THE AVERAGE OF IN AND OUT TIMES 100

 PERCENT DISCREPANCY =           0.00     PERCENT DISCREPANCY =           0.00






 

        AG WELLS          PERIOD    5   STEP   8
 AG WELL      1   LAYER   1   ROW     6   COL     4   RATE   -0.620000    
 AG WELL      2   LAYER   1   ROW     6   COL     5   RATE   -0.620000    
 AG WELL      3   LAYER   1   ROW     7   COL     4   RATE   -0.620000    
 AG WELL      4   LAYER   1   ROW     7   COL     5   RATE   -0.620000    
 AG WELL      5   LAYER   1   ROW     8   COL     4   RATE   -0.620000    
 AG WELL      6   LAYER   1   ROW     8   COL     5   RATE   -0.620000    
 
 

        GW IRRIGATION     PERIOD    5   STEP   8
 AG WELL      1   ROW     6   COL     4   RATE    0.620000    
 AG WELL      2   ROW     6   COL     5   RATE    0.620000    
 AG WELL      3   ROW     7   COL     4   RATE    0.620000    
 AG WELL      4   ROW     7   COL     5   RATE    0.620000    
 AG WELL      5   ROW     8   COL     4   RATE    0.620000    
 AG WELL      6   ROW     8   COL     5   RATE    0.620000    
 
1
  VOLUMETRIC BUDGET FOR AGRICULTURAL FIELDS AT  END OF TIME STEP    8, STRESS PERIOD   5
  ------------------------------------------------------------------------------

     CUMULATIVE VOLUMES      L**3       RATES FOR THIS TIME STEP      L**3/T
     ------------------                 ------------------------

           IN:                                      IN:
           ---                                      ---
           AG WELLS      =     2609063.5000             AG WELLS      =           3.7200
      DIVERSION SEGMENTS =           0.0000        DIVERSION SEGMENTS =           0.0000
           GW IRRIGATION =           0.0000             GW IRRIGATION =           0.0000
           SW IRRIGATION =           0.0000             SW IRRIGATION =           0.0000
        SYSTEM LOSSES GW =           0.0000          SYSTEM LOSSES GW =           0.0000
        SYSTEM LOSSES SW =           0.0000          SYSTEM LOSSES SW =           0.0000

                TOTAL IN =     2609063.5000                  TOTAL IN =           3.7200

          OUT:                                     OUT:
          ----                                     ----
           AG WELLS      =           0.0000             AG WELLS      =           0.0000
      DIVERSION SEGMENTS =           0.0000        DIVERSION SEGMENTS =           0.0000
           GW IRRIGATION =     2609063.5000             GW IRRIGATION =           3.7200
           SW IRRIGATION =           0.0000             SW IRRIGATION =           0.0000
        SYSTEM LOSSES GW =           0.0000          SYSTEM LOSSES GW =           0.0000
        SYSTEM LOSSES SW =           0.0000          SYSTEM LOSSES SW =           0.0000

               TOTAL OUT =     2609063.5000                 TOTAL OUT =           3.7200

                IN - OUT =           0.0000                  IN - OUT =           0.0000

     PERCENT DISCREPANCY =           0.00         PERCENT DISCREPANCY =           0.00



1
  VOLUMETRIC BUDGET FOR ENTIRE MODEL AT END OF TIME STEP    8, STRESS PERIOD   5
  ------------------------------------------------------------------------------

     CUMULATIVE VOLUMES      L**3       RATES FOR THIS TIME STEP      L**3/T
     ------------------                 ------------------------

           IN:                                      IN:
           ---                                      ---
             STORAGE     =     8847915.0000               STORAGE     =           5.8104
       CONSTANT HEAD     =           0.0000         CONSTANT HEAD     =           0.0000
     HEAD DEP BOUNDS     =     2476833.5000       HEAD DEP BOUNDS     =           0.2855
      STREAM LEAKAGE     =   107116040.0000        STREAM LEAKAGE     =          11.6120
        UZF RECHARGE     =       73223.9531          UZF RECHARGE     =           0.0000
               GW ET     =           0.0000                 GW ET     =           0.0000
     SURFACE LEAKAGE     =           0.0000       SURFACE LEAKAGE     =           0.0000
           AG WELLS      =           0.0000             AG WELLS      =           0.0000

                TOTAL IN =   118514008.0000                  TOTAL IN =          17.7079

          OUT:                                     OUT:
          ----                                     ----
             STORAGE     =    23300552.0000               STORAGE     =           1.1891
       CONSTANT HEAD     =           0.0000         CONSTANT HEAD     =           0.0000
     HEAD DEP BOUNDS     =     2535512.7500       HEAD DEP BOUNDS     =           0.2955
      STREAM LEAKAGE     =    89909376.0000        STREAM LEAKAGE     =          12.3660
        UZF RECHARGE     =           0.0000          UZF RECHARGE     =           0.0000
               GW ET     =      164585.5625                 GW ET     =           0.1372
     SURFACE LEAKAGE     =           0.0000       SURFACE LEAKAGE     =           0.0000
           AG WELLS      =     2609063.5000             AG WELLS      =           3.7200

               TOTAL OUT =   118519088.0000                 TOTAL OUT =          17.7078

                IN - OUT =       -5080.0000                  IN - OUT =       1.4305E-04

     PERCENT DISCREPANCY =          -0.00         PERCENT DISCREPANCY =           0.00






         TIME SUMMARY AT END OF TIME STEP    8 IN STRESS PERIOD    5
                    SECONDS     MINUTES      HOURS       DAYS        YEARS
                    -----------------------------------------------------------
   TIME STEP LENGTH  87667.      1461.1      24.352      1.0147     2.77799E-03
 STRESS PERIOD TIME 7.01333E+05  11689.      194.81      8.1173     2.22239E-02
         TOTAL TIME 8.67773E+06 1.44629E+05  2410.5      100.44     0.27498    
1
 
 SOLVING FOR HEAD 
                                                   Max.-Head-Change                         Max.-Flux-Residual
  Residual-Control   Outer-Iter.   Inner-Iter.     Column Row Layer    Maximum-Head-Change  Column Row Layer    Maximum-Flux-Residual          L2-NORM 
          0                 1           2             2   13     1      -0.8429139689E-02       2   13    1        -0.4745483579E+00      0.9313401882E+00
          0                 2           2             4    7     1      -0.1162857628E-01       5    6    1        -0.6337277359E+00      0.1544708449E+01
          0                 3           2             4    7     1       0.7914927628E-03       5    6    1         0.4433675218E-01      0.1080618813E+00
          0                 4           1             4    7     1      -0.3149424119E-04       5    6    1        -0.1813009002E-02      0.4418613189E-02

    ------------------------------------------------
       NWT REQUIRED            4 OUTER ITERATIONS 
       AND A TOTAL OF          7 INNER ITERATIONS.
    ------------------------------------------------

 OUTPUT CONTROL FOR STRESS PERIOD    5   TIME STEP    9
    PRINT BUDGET
    SAVE BUDGET
 UBDSV1 SAVING "         STORAGE" ON UNIT 102 AT TIME STEP 9, STRESS PERIOD 5
 UBDSV2 SAVING "   CONSTANT HEAD" ON UNIT 102 AT TIME STEP 9, STRESS PERIOD 5
 UBDSV1 SAVING "FLOW RIGHT FACE " ON UNIT 102 AT TIME STEP 9, STRESS PERIOD 5
 UBDSV1 SAVING "FLOW FRONT FACE " ON UNIT 102 AT TIME STEP 9, STRESS PERIOD 5

  HEAD DEP BOUNDS   PERIOD    5   STEP     9
 BOUNDARY      1   LAYER   1   ROW    13   COL     1   RATE   -0.295303    
 BOUNDARY      2   LAYER   1   ROW    14   COL     9   RATE    0.285476    



 STREAM LISTING     PERIOD      5   STEP        9

 LAYER ROW COL. STREAM  RCH.  FLOW INTO     FLOW TO   FLOW OUT OF   OVRLND.     DIRECT     STREAM       STREAM     STREAM     STREAM   STREAMBED  STREAMBED
                SEG.NO.  NO.  STRM. RCH.    AQUIFER    STRM. RCH.    RUNOFF     PRECIP       ET          HEAD       DEPTH      WIDTH   CONDCTNC.   GRADIENT

   1    1    1     1     1    2.8000E+01  2.5860E-01   2.7742E+01  0.000E+00  0.000E+00  0.000E+00  1.09427E+03  1.221E+00  1.361E+01  6.126E-02  1.407E+00
   1    2    2     1     2    2.7742E+01  4.0002E-01   2.7341E+01  0.000E+00  0.000E+00  0.000E+00  1.08928E+03  1.217E+00  1.355E+01  9.487E-02  1.406E+00
   1    3    3     1     3    2.7341E+01  3.4070E-01   2.7001E+01  0.000E+00  0.000E+00  0.000E+00  1.08363E+03  1.212E+00  1.348E+01  8.090E-02  1.404E+00
   1    3    4     1     4    2.7001E+01  3.1335E-01   2.6687E+01  0.000E+00  0.000E+00  0.000E+00  1.07861E+03  1.207E+00  1.342E+01  7.448E-02  1.402E+00
   1    4    5     2     1    2.4687E+01  3.2711E-01   2.4360E+01  0.000E+00  0.000E+00  0.000E+00  1.07313E+03  1.194E+00  1.200E+01  7.800E-02  1.398E+00
   1    5    6     2     2    2.4360E+01  2.5111E-01   2.4109E+01  0.000E+00  0.000E+00  0.000E+00  1.06769E+03  1.185E+00  1.200E+01  6.000E-02  1.395E+00
   1    6    6     2     3    2.4109E+01  2.5067E-01   2.3859E+01  0.000E+00  0.000E+00  0.000E+00  1.06297E+03  1.178E+00  1.200E+01  6.000E-02  1.393E+00
   1    7    6     2     4    2.3859E+01  2.5023E-01   2.3608E+01  0.000E+00  0.000E+00  0.000E+00  1.05825E+03  1.170E+00  1.200E+01  6.000E-02  1.390E+00
   1    8    6     2     5    2.3608E+01  2.4978E-01   2.3359E+01  0.000E+00  0.000E+00  0.000E+00  1.05352E+03  1.163E+00  1.200E+01  6.000E-02  1.388E+00
   1    3    5     3     1    2.0000E+00  2.8252E-01   1.7175E+00  0.000E+00  0.000E+00  0.000E+00  1.07555E+03  1.909E+00  9.636E+00  7.227E-02  1.955E+00
   1    3    6     3     2    1.7175E+00  2.4905E-01   1.4684E+00  0.000E+00  0.000E+00  0.000E+00  1.07264E+03  1.727E+00  8.909E+00  6.682E-02  1.864E+00
   1    3    7     3     3    1.4684E+00  1.9718E-01   1.2712E+00  0.000E+00  0.000E+00  0.000E+00  1.06987E+03  1.555E+00  8.218E+00  5.547E-02  1.777E+00
   1    4    8     3     4    1.2712E+00  2.2567E-01   1.0456E+00  0.000E+00  0.000E+00  0.000E+00  1.06682E+03  1.364E+00  7.455E+00  6.709E-02  1.682E+00
   1    5    8     3     5    1.0456E+00  1.5790E-01   8.8768E-01  0.000E+00  0.000E+00  0.000E+00  1.06362E+03  1.164E+00  6.655E+00  4.991E-02  1.582E+00
   1    6    8     3     6    8.8768E-01  5.5980E-02   8.3170E-01  0.000E+00  0.000E+00  0.000E+00  1.06158E+03  1.036E+00  6.145E+00  1.844E-02  1.518E+00
   1    5   10     4     1    1.0000E+01  9.0919E-02   9.9091E+00  0.000E+00  0.000E+00  0.000E+00  1.07836E+03  6.368E-01  1.000E+01  2.500E-02  1.212E+00
   1    5    9     4     2    9.9091E+00  1.8158E-01   9.7275E+00  0.000E+00  0.000E+00  0.000E+00  1.07154E+03  6.315E-01  1.000E+01  5.000E-02  1.211E+00
   1    6    8     4     3    9.7275E+00  1.2689E-01   9.6006E+00  0.000E+00  0.000E+00  0.000E+00  1.06381E+03  6.256E-01  1.000E+01  3.500E-02  1.209E+00
   1    6    8     5     1    1.0432E+01  2.2686E-01   1.0205E+01  0.000E+00  0.000E+00  0.000E+00  1.05868E+03  6.790E-01  1.542E+01  6.166E-02  1.226E+00
   1    7    7     5     2    1.0205E+01  2.7894E-01   9.9265E+00  0.000E+00  0.000E+00  0.000E+00  1.05417E+03  6.732E-01  1.519E+01  7.594E-02  1.224E+00
   1    8    7     5     3    9.9265E+00  1.9221E-01   9.7343E+00  0.000E+00  0.000E+00  0.000E+00  1.04992E+03  6.676E-01  1.497E+01  5.241E-02  1.223E+00
   1    8    6     5     4    9.7343E+00  1.3577E-01   9.5985E+00  0.000E+00  0.000E+00  0.000E+00  1.04691E+03  6.637E-01  1.482E+01  3.706E-02  1.221E+00
   1    9    6     6     1    3.2957E+01  2.6627E-01   3.2691E+01  0.000E+00  0.000E+00  0.000E+00  1.04417E+03  1.438E+00  1.200E+01  6.000E-02  1.479E+00
   1   10    7     6     2    3.2691E+01  2.6585E-01   3.2425E+01  0.000E+00  0.000E+00  0.000E+00  1.03961E+03  1.431E+00  1.200E+01  6.000E-02  1.477E+00
   1   11    7     6     3    3.2425E+01  2.6542E-01   3.2160E+01  0.000E+00  0.000E+00  0.000E+00  1.03506E+03  1.424E+00  1.200E+01  6.000E-02  1.475E+00
   1   12    7     6     4    3.2160E+01  2.6500E-01   3.1895E+01  0.000E+00  0.000E+00  0.000E+00  1.03051E+03  1.417E+00  1.200E+01  6.000E-02  1.472E+00
   1   13    7     6     5    3.1895E+01  3.4365E-03   3.1891E+01  0.000E+00  0.000E+00  0.000E+00  1.02732E+03  1.413E+00  1.200E+01  2.400E-02  4.773E-02
   1   14    9     7     1    1.5000E+02  1.3317E+00   1.4867E+02  0.000E+00  0.000E+00  0.000E+00  1.03987E+03  2.288E+00  5.529E+01  5.593E-01  7.936E-01
   1   13    8     7     2    1.4867E+02  1.8134E+00   1.4685E+02  0.000E+00  0.000E+00  0.000E+00  1.03478E+03  2.279E+00  5.526E+01  6.148E-01  9.832E-01
   1   13    7     7     3    1.4685E+02  1.4024E+00   1.4545E+02  0.000E+00  0.000E+00  0.000E+00  1.02969E+03  2.271E+00  5.522E+01  5.585E-01  8.370E-01
   1   13    6     8     1    1.7734E+02  8.6053E-01   1.7648E+02  0.000E+00  0.000E+00  0.000E+00  1.02487E+03  2.997E+00  4.345E+01  4.428E-01  6.478E-01
   1   13    5     8     2    1.7648E+02  9.5860E-02   1.7639E+02  0.000E+00  0.000E+00  0.000E+00  1.01862E+03  2.994E+00  4.341E+01  4.423E-01  7.224E-02
   1   13    4     8     3    1.7639E+02 -2.9434E+00   1.7933E+02  0.000E+00  0.000E+00  0.000E+00  1.01238E+03  3.003E+00  4.354E+01  4.437E+00 -2.211E-01
   1   13    3     8     4    1.7933E+02 -4.0508E+00   1.8338E+02  0.000E+00  0.000E+00  0.000E+00  1.00615E+03  3.025E+00  4.386E+01  4.469E+00 -3.021E-01
   1   13    2     8     5    1.8338E+02 -3.0039E+00   1.8639E+02  0.000E+00  0.000E+00  0.000E+00  9.99922E+02  3.047E+00  4.418E+01  4.502E+00 -2.224E-01
   1   13    1     8     6    1.8639E+02 -2.2628E+00   1.8865E+02  0.000E+00  0.000E+00  0.000E+00  9.94938E+02  3.063E+00  4.441E+01  2.715E+00 -2.778E-01



 UBDSV3 SAVING "           GW ET" ON UNIT  61 AT TIME STEP 9, STRESS PERIOD 5
 UBDSV3 SAVING "    UZF RECHARGE" ON UNIT  61 AT TIME STEP 9, STRESS PERIOD 5
 UBDSV3 SAVING " SURFACE LEAKAGE" ON UNIT  61 AT TIME STEP 9, STRESS PERIOD 5
 UBDSV3 SAVING "       HORT+DUNN" ON UNIT  61 AT TIME STEP 9, STRESS PERIOD 5
 UBDSV3 SAVING "  STORAGE CHANGE" ON UNIT  61 AT TIME STEP 9, STRESS PERIOD 5


UNSATURATED ZONE PACKAGE VOLUMETRIC BUDGET FOR  TIME STEP     9 STRESS PERIOD    5
  ------------------------------------------------------------------------------



     CUMULATIVE VOLUMES      L**3       RATES FOR THIS TIME STEP      L**3/T
     ------------------                 ------------------------

           IN:                                      IN:
           ---                                      ---
        INFILTRATION =    10363859.4171          INFILTRATION =           4.5675

          OUT:                                     OUT:
          ----                                     ----
              UZF ET =    10289946.9723                UZF ET =           4.5675
        UZF RECHARGE =       73224.0000          UZF RECHARGE =       0.0000E+00

            IN - OUT =         688.4448              IN - OUT =       0.0000E+00

          STORAGE:                                 STORAGE:
          --------                                 --------
      STORAGE CHANGE =         688.4959        STORAGE CHANGE =      -2.8666E-12

 PERCENT DISCREPANCY IS DIFFERENCE BETWEEN IN-OUT MINUS CHANGE IN STORAGE
 DIVIDED BY THE AVERAGE OF IN AND OUT TIMES 100

 PERCENT DISCREPANCY =           0.00     PERCENT DISCREPANCY =           0.00






 

        AG WELLS          PERIOD    5   STEP   9
 AG WELL      1   LAYER   1   ROW     6   COL     4   RATE   -0.620000    
 AG WELL      2   LAYER   1   ROW     6   COL     5   RATE   -0.620000    
 AG WELL      3   LAYER   1   ROW     7   COL     4   RATE   -0.620000    
 AG WELL      4   LAYER   1   ROW     7   COL     5   RATE   -0.620000    
 AG WELL      5   LAYER   1   ROW     8   COL     4   RATE   -0.620000    
 AG WELL      6   LAYER   1   ROW     8   COL     5   RATE   -0.620000    
 
 

        GW IRRIGATION     PERIOD    5   STEP   9
 AG WELL      1   ROW     6   COL     4   RATE    0.620000    
 AG WELL      2   ROW     6   COL     5   RATE    0.620000    
 AG WELL      3   ROW     7   COL     4   RATE    0.620000    
 AG WELL      4   ROW     7   COL     5   RATE    0.620000    
 AG WELL      5   ROW     8   COL     4   RATE    0.620000    
 AG WELL      6   ROW     8   COL     5   RATE    0.620000    
 
1
  VOLUMETRIC BUDGET FOR AGRICULTURAL FIELDS AT  END OF TIME STEP    9, STRESS PERIOD   5
  ------------------------------------------------------------------------------

     CUMULATIVE VOLUMES      L**3       RATES FOR THIS TIME STEP      L**3/T
     ------------------                 ------------------------

           IN:                                      IN:
           ---                                      ---
           AG WELLS      =     2935183.5000             AG WELLS      =           3.7200
      DIVERSION SEGMENTS =           0.0000        DIVERSION SEGMENTS =           0.0000
           GW IRRIGATION =           0.0000             GW IRRIGATION =           0.0000
           SW IRRIGATION =           0.0000             SW IRRIGATION =           0.0000
        SYSTEM LOSSES GW =           0.0000          SYSTEM LOSSES GW =           0.0000
        SYSTEM LOSSES SW =           0.0000          SYSTEM LOSSES SW =           0.0000

                TOTAL IN =     2935183.5000                  TOTAL IN =           3.7200

          OUT:                                     OUT:
          ----                                     ----
           AG WELLS      =           0.0000             AG WELLS      =           0.0000
      DIVERSION SEGMENTS =           0.0000        DIVERSION SEGMENTS =           0.0000
           GW IRRIGATION =     2935183.5000             GW IRRIGATION =           3.7200
           SW IRRIGATION =           0.0000             SW IRRIGATION =           0.0000
        SYSTEM LOSSES GW =           0.0000          SYSTEM LOSSES GW =           0.0000
        SYSTEM LOSSES SW =           0.0000          SYSTEM LOSSES SW =           0.0000

               TOTAL OUT =     2935183.5000                 TOTAL OUT =           3.7200

                IN - OUT =           0.0000                  IN - OUT =           0.0000

     PERCENT DISCREPANCY =           0.00         PERCENT DISCREPANCY =           0.00



1
  VOLUMETRIC BUDGET FOR ENTIRE MODEL AT END OF TIME STEP    9, STRESS PERIOD   5
  ------------------------------------------------------------------------------

     CUMULATIVE VOLUMES      L**3       RATES FOR THIS TIME STEP      L**3/T
     ------------------                 ------------------------

           IN:                                      IN:
           ---                                      ---
             STORAGE     =     9343903.0000               STORAGE     =           5.6577
       CONSTANT HEAD     =           0.0000         CONSTANT HEAD     =           0.0000
     HEAD DEP BOUNDS     =     2501860.2500       HEAD DEP BOUNDS     =           0.2855
      STREAM LEAKAGE     =   108134104.0000        STREAM LEAKAGE     =          11.6129
        UZF RECHARGE     =       73223.9531          UZF RECHARGE     =           0.0000
               GW ET     =           0.0000                 GW ET     =           0.0000
     SURFACE LEAKAGE     =           0.0000       SURFACE LEAKAGE     =           0.0000
           AG WELLS      =           0.0000             AG WELLS      =           0.0000

                TOTAL IN =   120053088.0000                  TOTAL IN =          17.5560

          OUT:                                     OUT:
          ----                                     ----
             STORAGE     =    23402174.0000               STORAGE     =           1.1592
       CONSTANT HEAD     =           0.0000         CONSTANT HEAD     =           0.0000
     HEAD DEP BOUNDS     =     2561401.0000       HEAD DEP BOUNDS     =           0.2953
      STREAM LEAKAGE     =    90984248.0000        STREAM LEAKAGE     =          12.2609
        UZF RECHARGE     =           0.0000          UZF RECHARGE     =           0.0000
               GW ET     =      175142.7812                 GW ET     =           0.1204
     SURFACE LEAKAGE     =           0.0000       SURFACE LEAKAGE     =           0.0000
           AG WELLS      =     2935183.5000             AG WELLS      =           3.7200

               TOTAL OUT =   120058152.0000                 TOTAL OUT =          17.5558

                IN - OUT =       -5064.0000                  IN - OUT =       1.4496E-04

     PERCENT DISCREPANCY =          -0.00         PERCENT DISCREPANCY =           0.00






         TIME SUMMARY AT END OF TIME STEP    9 IN STRESS PERIOD    5
                    SECONDS     MINUTES      HOURS       DAYS        YEARS
                    -----------------------------------------------------------
   TIME STEP LENGTH  87667.      1461.1      24.352      1.0147     2.77799E-03
 STRESS PERIOD TIME 7.89000E+05  13150.      219.17      9.1319     2.50019E-02
         TOTAL TIME 8.76540E+06 1.46090E+05  2434.8      101.45     0.27776    
1
 
 SOLVING FOR HEAD 
                                                   Max.-Head-Change                         Max.-Flux-Residual
  Residual-Control   Outer-Iter.   Inner-Iter.     Column Row Layer    Maximum-Head-Change  Column Row Layer    Maximum-Flux-Residual          L2-NORM 
          0                 1           2             2   13     1      -0.7797218712E-02       2   13    1        -0.4389858662E+00      0.8757011779E+00
          0                 2           2             4    7     1      -0.1163757996E-01       5    6    1        -0.6348223955E+00      0.1546483379E+01
          0                 3           2             4    7     1       0.7921058865E-03       5    6    1         0.4441379394E-01      0.1081884693E+00
          0                 4           1             4    7     1      -0.3151863765E-04       5    6    1        -0.1816200309E-02      0.4423892074E-02

    ------------------------------------------------
       NWT REQUIRED            4 OUTER ITERATIONS 
       AND A TOTAL OF          7 INNER ITERATIONS.
    ------------------------------------------------

 OUTPUT CONTROL FOR STRESS PERIOD    5   TIME STEP   10
    PRINT BUDGET
    SAVE BUDGET
 UBDSV1 SAVING "         STORAGE" ON UNIT 102 AT TIME STEP 10, STRESS PERIOD 5
 UBDSV2 SAVING "   CONSTANT HEAD" ON UNIT 102 AT TIME STEP 10, STRESS PERIOD 5
 UBDSV1 SAVING "FLOW RIGHT FACE " ON UNIT 102 AT TIME STEP 10, STRESS PERIOD 5
 UBDSV1 SAVING "FLOW FRONT FACE " ON UNIT 102 AT TIME STEP 10, STRESS PERIOD 5

  HEAD DEP BOUNDS   PERIOD    5   STEP    10
 BOUNDARY      1   LAYER   1   ROW    13   COL     1   RATE   -0.295110    
 BOUNDARY      2   LAYER   1   ROW    14   COL     9   RATE    0.285477    



 STREAM LISTING     PERIOD      5   STEP       10

 LAYER ROW COL. STREAM  RCH.  FLOW INTO     FLOW TO   FLOW OUT OF   OVRLND.     DIRECT     STREAM       STREAM     STREAM     STREAM   STREAMBED  STREAMBED
                SEG.NO.  NO.  STRM. RCH.    AQUIFER    STRM. RCH.    RUNOFF     PRECIP       ET          HEAD       DEPTH      WIDTH   CONDCTNC.   GRADIENT

   1    1    1     1     1    2.8000E+01  2.5860E-01   2.7742E+01  0.000E+00  0.000E+00  0.000E+00  1.09427E+03  1.221E+00  1.361E+01  6.126E-02  1.407E+00
   1    2    2     1     2    2.7742E+01  4.0002E-01   2.7341E+01  0.000E+00  0.000E+00  0.000E+00  1.08928E+03  1.217E+00  1.355E+01  9.487E-02  1.406E+00
   1    3    3     1     3    2.7341E+01  3.4070E-01   2.7001E+01  0.000E+00  0.000E+00  0.000E+00  1.08363E+03  1.212E+00  1.348E+01  8.090E-02  1.404E+00
   1    3    4     1     4    2.7001E+01  3.1335E-01   2.6687E+01  0.000E+00  0.000E+00  0.000E+00  1.07861E+03  1.207E+00  1.342E+01  7.448E-02  1.402E+00
   1    4    5     2     1    2.4687E+01  3.2711E-01   2.4360E+01  0.000E+00  0.000E+00  0.000E+00  1.07313E+03  1.194E+00  1.200E+01  7.800E-02  1.398E+00
   1    5    6     2     2    2.4360E+01  2.5111E-01   2.4109E+01  0.000E+00  0.000E+00  0.000E+00  1.06769E+03  1.185E+00  1.200E+01  6.000E-02  1.395E+00
   1    6    6     2     3    2.4109E+01  2.5067E-01   2.3859E+01  0.000E+00  0.000E+00  0.000E+00  1.06297E+03  1.178E+00  1.200E+01  6.000E-02  1.393E+00
   1    7    6     2     4    2.3859E+01  2.5023E-01   2.3608E+01  0.000E+00  0.000E+00  0.000E+00  1.05825E+03  1.170E+00  1.200E+01  6.000E-02  1.390E+00
   1    8    6     2     5    2.3608E+01  2.4978E-01   2.3359E+01  0.000E+00  0.000E+00  0.000E+00  1.05352E+03  1.163E+00  1.200E+01  6.000E-02  1.388E+00
   1    3    5     3     1    2.0000E+00  2.8252E-01   1.7175E+00  0.000E+00  0.000E+00  0.000E+00  1.07555E+03  1.909E+00  9.636E+00  7.227E-02  1.955E+00
   1    3    6     3     2    1.7175E+00  2.4905E-01   1.4684E+00  0.000E+00  0.000E+00  0.000E+00  1.07264E+03  1.727E+00  8.909E+00  6.682E-02  1.864E+00
   1    3    7     3     3    1.4684E+00  1.9718E-01   1.2712E+00  0.000E+00  0.000E+00  0.000E+00  1.06987E+03  1.555E+00  8.218E+00  5.547E-02  1.777E+00
   1    4    8     3     4    1.2712E+00  2.2567E-01   1.0456E+00  0.000E+00  0.000E+00  0.000E+00  1.06682E+03  1.364E+00  7.455E+00  6.709E-02  1.682E+00
   1    5    8     3     5    1.0456E+00  1.5790E-01   8.8768E-01  0.000E+00  0.000E+00  0.000E+00  1.06362E+03  1.164E+00  6.655E+00  4.991E-02  1.582E+00
   1    6    8     3     6    8.8768E-01  5.5980E-02   8.3170E-01  0.000E+00  0.000E+00  0.000E+00  1.06158E+03  1.036E+00  6.145E+00  1.844E-02  1.518E+00
   1    5   10     4     1    1.0000E+01  9.0919E-02   9.9091E+00  0.000E+00  0.000E+00  0.000E+00  1.07836E+03  6.368E-01  1.000E+01  2.500E-02  1.212E+00
   1    5    9     4     2    9.9091E+00  1.8158E-01   9.7275E+00  0.000E+00  0.000E+00  0.000E+00  1.07154E+03  6.315E-01  1.000E+01  5.000E-02  1.211E+00
   1    6    8     4     3    9.7275E+00  1.2689E-01   9.6006E+00  0.000E+00  0.000E+00  0.000E+00  1.06381E+03  6.256E-01  1.000E+01  3.500E-02  1.209E+00
   1    6    8     5     1    1.0432E+01  2.2686E-01   1.0205E+01  0.000E+00  0.000E+00  0.000E+00  1.05868E+03  6.790E-01  1.542E+01  6.166E-02  1.226E+00
   1    7    7     5     2    1.0205E+01  2.7894E-01   9.9265E+00  0.000E+00  0.000E+00  0.000E+00  1.05417E+03  6.732E-01  1.519E+01  7.594E-02  1.224E+00
   1    8    7     5     3    9.9265E+00  1.9221E-01   9.7343E+00  0.000E+00  0.000E+00  0.000E+00  1.04992E+03  6.676E-01  1.497E+01  5.241E-02  1.223E+00
   1    8    6     5     4    9.7343E+00  1.3577E-01   9.5985E+00  0.000E+00  0.000E+00  0.000E+00  1.04691E+03  6.637E-01  1.482E+01  3.706E-02  1.221E+00
   1    9    6     6     1    3.2957E+01  2.6627E-01   3.2691E+01  0.000E+00  0.000E+00  0.000E+00  1.04417E+03  1.438E+00  1.200E+01  6.000E-02  1.479E+00
   1   10    7     6     2    3.2691E+01  2.6585E-01   3.2425E+01  0.000E+00  0.000E+00  0.000E+00  1.03961E+03  1.431E+00  1.200E+01  6.000E-02  1.477E+00
   1   11    7     6     3    3.2425E+01  2.6542E-01   3.2160E+01  0.000E+00  0.000E+00  0.000E+00  1.03506E+03  1.424E+00  1.200E+01  6.000E-02  1.475E+00
   1   12    7     6     4    3.2160E+01  2.6500E-01   3.1895E+01  0.000E+00  0.000E+00  0.000E+00  1.03051E+03  1.417E+00  1.200E+01  6.000E-02  1.472E+00
   1   13    7     6     5    3.1895E+01  3.4296E-03   3.1891E+01  0.000E+00  0.000E+00  0.000E+00  1.02732E+03  1.413E+00  1.200E+01  2.400E-02  4.763E-02
   1   14    9     7     1    1.5000E+02  1.3317E+00   1.4867E+02  0.000E+00  0.000E+00  0.000E+00  1.03987E+03  2.288E+00  5.529E+01  5.593E-01  7.937E-01
   1   13    8     7     2    1.4867E+02  1.8133E+00   1.4686E+02  0.000E+00  0.000E+00  0.000E+00  1.03478E+03  2.279E+00  5.526E+01  6.148E-01  9.832E-01
   1   13    7     7     3    1.4686E+02  1.4022E+00   1.4545E+02  0.000E+00  0.000E+00  0.000E+00  1.02969E+03  2.271E+00  5.522E+01  5.585E-01  8.369E-01
   1   13    6     8     1    1.7734E+02  8.6106E-01   1.7648E+02  0.000E+00  0.000E+00  0.000E+00  1.02487E+03  2.997E+00  4.345E+01  4.428E-01  6.482E-01
   1   13    5     8     2    1.7648E+02  9.6466E-02   1.7639E+02  0.000E+00  0.000E+00  0.000E+00  1.01862E+03  2.994E+00  4.341E+01  4.423E-01  7.269E-02
   1   13    4     8     3    1.7639E+02 -2.9174E+00   1.7930E+02  0.000E+00  0.000E+00  0.000E+00  1.01238E+03  3.003E+00  4.354E+01  4.437E+00 -2.192E-01
   1   13    3     8     4    1.7930E+02 -4.0240E+00   1.8333E+02  0.000E+00  0.000E+00  0.000E+00  1.00615E+03  3.024E+00  4.385E+01  4.469E+00 -3.001E-01
   1   13    2     8     5    1.8333E+02 -2.9734E+00   1.8630E+02  0.000E+00  0.000E+00  0.000E+00  9.99921E+02  3.046E+00  4.417E+01  4.501E+00 -2.202E-01
   1   13    1     8     6    1.8630E+02 -2.2501E+00   1.8855E+02  0.000E+00  0.000E+00  0.000E+00  9.94937E+02  3.062E+00  4.440E+01  2.715E+00 -2.763E-01



 UBDSV3 SAVING "           GW ET" ON UNIT  61 AT TIME STEP 10, STRESS PERIOD 5
 UBDSV3 SAVING "    UZF RECHARGE" ON UNIT  61 AT TIME STEP 10, STRESS PERIOD 5
 UBDSV3 SAVING " SURFACE LEAKAGE" ON UNIT  61 AT TIME STEP 10, STRESS PERIOD 5
 UBDSV3 SAVING "       HORT+DUNN" ON UNIT  61 AT TIME STEP 10, STRESS PERIOD 5
 UBDSV3 SAVING "  STORAGE CHANGE" ON UNIT  61 AT TIME STEP 10, STRESS PERIOD 5


UNSATURATED ZONE PACKAGE VOLUMETRIC BUDGET FOR  TIME STEP    10 STRESS PERIOD    5
  ------------------------------------------------------------------------------



     CUMULATIVE VOLUMES      L**3       RATES FOR THIS TIME STEP      L**3/T
     ------------------                 ------------------------

           IN:                                      IN:
           ---                                      ---
        INFILTRATION =    10764276.8973          INFILTRATION =           4.5675

          OUT:                                     OUT:
          ----                                     ----
              UZF ET =    10690364.4526                UZF ET =           4.5675
        UZF RECHARGE =       73224.0000          UZF RECHARGE =       0.0000E+00

            IN - OUT =         688.4448              IN - OUT =       0.0000E+00

          STORAGE:                                 STORAGE:
          --------                                 --------
      STORAGE CHANGE =         688.4959        STORAGE CHANGE =      -2.8666E-12

 PERCENT DISCREPANCY IS DIFFERENCE BETWEEN IN-OUT MINUS CHANGE IN STORAGE
 DIVIDED BY THE AVERAGE OF IN AND OUT TIMES 100

 PERCENT DISCREPANCY =           0.00     PERCENT DISCREPANCY =           0.00






 

        AG WELLS          PERIOD    5   STEP  10
 AG WELL      1   LAYER   1   ROW     6   COL     4   RATE   -0.620000    
 AG WELL      2   LAYER   1   ROW     6   COL     5   RATE   -0.620000    
 AG WELL      3   LAYER   1   ROW     7   COL     4   RATE   -0.620000    
 AG WELL      4   LAYER   1   ROW     7   COL     5   RATE   -0.620000    
 AG WELL      5   LAYER   1   ROW     8   COL     4   RATE   -0.620000    
 AG WELL      6   LAYER   1   ROW     8   COL     5   RATE   -0.620000    
 
 

        GW IRRIGATION     PERIOD    5   STEP  10
 AG WELL      1   ROW     6   COL     4   RATE    0.620000    
 AG WELL      2   ROW     6   COL     5   RATE    0.620000    
 AG WELL      3   ROW     7   COL     4   RATE    0.620000    
 AG WELL      4   ROW     7   COL     5   RATE    0.620000    
 AG WELL      5   ROW     8   COL     4   RATE    0.620000    
 AG WELL      6   ROW     8   COL     5   RATE    0.620000    
 
1
  VOLUMETRIC BUDGET FOR AGRICULTURAL FIELDS AT  END OF TIME STEP   10, STRESS PERIOD   5
  ------------------------------------------------------------------------------

     CUMULATIVE VOLUMES      L**3       RATES FOR THIS TIME STEP      L**3/T
     ------------------                 ------------------------

           IN:                                      IN:
           ---                                      ---
           AG WELLS      =     3261303.5000             AG WELLS      =           3.7200
      DIVERSION SEGMENTS =           0.0000        DIVERSION SEGMENTS =           0.0000
           GW IRRIGATION =           0.0000             GW IRRIGATION =           0.0000
           SW IRRIGATION =           0.0000             SW IRRIGATION =           0.0000
        SYSTEM LOSSES GW =           0.0000          SYSTEM LOSSES GW =           0.0000
        SYSTEM LOSSES SW =           0.0000          SYSTEM LOSSES SW =           0.0000

                TOTAL IN =     3261303.5000                  TOTAL IN =           3.7200

          OUT:                                     OUT:
          ----                                     ----
           AG WELLS      =           0.0000             AG WELLS      =           0.0000
      DIVERSION SEGMENTS =           0.0000        DIVERSION SEGMENTS =           0.0000
           GW IRRIGATION =     3261303.5000             GW IRRIGATION =           3.7200
           SW IRRIGATION =           0.0000             SW IRRIGATION =           0.0000
        SYSTEM LOSSES GW =           0.0000          SYSTEM LOSSES GW =           0.0000
        SYSTEM LOSSES SW =           0.0000          SYSTEM LOSSES SW =           0.0000

               TOTAL OUT =     3261303.5000                 TOTAL OUT =           3.7200

                IN - OUT =           0.0000                  IN - OUT =           0.0000

     PERCENT DISCREPANCY =           0.00         PERCENT DISCREPANCY =           0.00



1
  VOLUMETRIC BUDGET FOR ENTIRE MODEL AT END OF TIME STEP   10, STRESS PERIOD   5
  ------------------------------------------------------------------------------

     CUMULATIVE VOLUMES      L**3       RATES FOR THIS TIME STEP      L**3/T
     ------------------                 ------------------------

           IN:                                      IN:
           ---                                      ---
             STORAGE     =     9827802.0000               STORAGE     =           5.5198
       CONSTANT HEAD     =           0.0000         CONSTANT HEAD     =           0.0000
     HEAD DEP BOUNDS     =     2526887.0000       HEAD DEP BOUNDS     =           0.2855
      STREAM LEAKAGE     =   109152240.0000        STREAM LEAKAGE     =          11.6137
        UZF RECHARGE     =       73223.9531          UZF RECHARGE     =           0.0000
               GW ET     =           0.0000                 GW ET     =           0.0000
     SURFACE LEAKAGE     =           0.0000       SURFACE LEAKAGE     =           0.0000
           AG WELLS      =           0.0000             AG WELLS      =           0.0000

                TOTAL IN =   121580152.0000                  TOTAL IN =          17.4189

          OUT:                                     OUT:
          ----                                     ----
             STORAGE     =    23501530.0000               STORAGE     =           1.1333
       CONSTANT HEAD     =           0.0000         CONSTANT HEAD     =           0.0000
     HEAD DEP BOUNDS     =     2587272.2500       HEAD DEP BOUNDS     =           0.2951
      STREAM LEAKAGE     =    92050704.0000        STREAM LEAKAGE     =          12.1649
        UZF RECHARGE     =           0.0000          UZF RECHARGE     =           0.0000
               GW ET     =      184383.8594                 GW ET     =           0.1054
     SURFACE LEAKAGE     =           0.0000       SURFACE LEAKAGE     =           0.0000
           AG WELLS      =     3261303.5000             AG WELLS      =           3.7200

               TOTAL OUT =   121585192.0000                 TOTAL OUT =          17.4188

                IN - OUT =       -5040.0000                  IN - OUT =       1.4305E-04

     PERCENT DISCREPANCY =          -0.00         PERCENT DISCREPANCY =           0.00






         TIME SUMMARY AT END OF TIME STEP   10 IN STRESS PERIOD    5
                    SECONDS     MINUTES      HOURS       DAYS        YEARS
                    -----------------------------------------------------------
   TIME STEP LENGTH  87667.      1461.1      24.352      1.0147     2.77799E-03
 STRESS PERIOD TIME 8.76667E+05  14611.      243.52      10.147     2.77799E-02
         TOTAL TIME 8.85306E+06 1.47551E+05  2459.2      102.47     0.28054    
1
 
 SOLVING FOR HEAD 
                                                   Max.-Head-Change                         Max.-Flux-Residual
  Residual-Control   Outer-Iter.   Inner-Iter.     Column Row Layer    Maximum-Head-Change  Column Row Layer    Maximum-Flux-Residual          L2-NORM 
          0                 1           2             2   13     1      -0.7211962082E-02       2   13    1        -0.4060444277E+00      0.8288582697E+00
          0                 2           2             4    7     1      -0.1164675296E-01       5    6    1        -0.6358634881E+00      0.1548252272E+01
          0                 3           2             4    7     1       0.7927305392E-03       5    6    1         0.4448705871E-01      0.1083143943E+00
          0                 4           1             4    7     1      -0.3154349347E-04       5    6    1        -0.1819234476E-02      0.4429181799E-02

    ------------------------------------------------
       NWT REQUIRED            4 OUTER ITERATIONS 
       AND A TOTAL OF          7 INNER ITERATIONS.
    ------------------------------------------------

 NO OUTPUT CONTROL FOR STRESS PERIOD    5   TIME STEP   11
 
 SOLVING FOR HEAD 
                                                   Max.-Head-Change                         Max.-Flux-Residual
  Residual-Control   Outer-Iter.   Inner-Iter.     Column Row Layer    Maximum-Head-Change  Column Row Layer    Maximum-Flux-Residual          L2-NORM 
          0                 1           2             2   13     1      -0.6670139303E-02       2   13    1        -0.3755433260E+00      0.7899713672E+00
          0                 2           2             4    7     1      -0.1165609736E-01       5    6    1        -0.6368544882E+00      0.1550009917E+01
          0                 3           2             4    7     1       0.7933668634E-03       5    6    1         0.4455679046E-01      0.1084393443E+00
          0                 4           1             4    7     1      -0.3156881349E-04       5    6    1        -0.1822121598E-02      0.4434433105E-02

    ------------------------------------------------
       NWT REQUIRED            4 OUTER ITERATIONS 
       AND A TOTAL OF          7 INNER ITERATIONS.
    ------------------------------------------------

 NO OUTPUT CONTROL FOR STRESS PERIOD    5   TIME STEP   12
 
 SOLVING FOR HEAD 
                                                   Max.-Head-Change                         Max.-Flux-Residual
  Residual-Control   Outer-Iter.   Inner-Iter.     Column Row Layer    Maximum-Head-Change  Column Row Layer    Maximum-Flux-Residual          L2-NORM 
          0                 1           2             2   13     1      -0.6168618470E-02       2   13    1        -0.3473071982E+00      0.7582141958E+00
          0                 2           2             4    7     1      -0.1166558784E-01       5    6    1        -0.6378003584E+00      0.1551747979E+01
          0                 3           2             4    7     1       0.7940131343E-03       5    6    1         0.4462333856E-01      0.1085626371E+00
          0                 4           1             4    7     1      -0.3159452908E-04       5    6    1        -0.1824876131E-02      0.4439571690E-02

    ------------------------------------------------
       NWT REQUIRED            4 OUTER ITERATIONS 
       AND A TOTAL OF          7 INNER ITERATIONS.
    ------------------------------------------------

 NO OUTPUT CONTROL FOR STRESS PERIOD    5   TIME STEP   13
 
 SOLVING FOR HEAD 
                                                   Max.-Head-Change                         Max.-Flux-Residual
  Residual-Control   Outer-Iter.   Inner-Iter.     Column Row Layer    Maximum-Head-Change  Column Row Layer    Maximum-Flux-Residual          L2-NORM 
          0                 1           2             2   13     1      -0.5704449592E-02       2   13    1        -0.3211708784E+00      0.7327985698E+00
          0                 2           2             4    7     1      -0.1167517469E-01       5    6    1        -0.6387023659E+00      0.1553460523E+01
          0                 3           2             4    7     1       0.7946659673E-03       5    6    1         0.4468679352E-01      0.1086838684E+00
          0                 4           1             4    7     1      -0.3162050555E-04       5    6    1        -0.1827501913E-02      0.4444596377E-02

    ------------------------------------------------
       NWT REQUIRED            4 OUTER ITERATIONS 
       AND A TOTAL OF          7 INNER ITERATIONS.
    ------------------------------------------------

 NO OUTPUT CONTROL FOR STRESS PERIOD    5   TIME STEP   14
 
 SOLVING FOR HEAD 
                                                   Max.-Head-Change                         Max.-Flux-Residual
  Residual-Control   Outer-Iter.   Inner-Iter.     Column Row Layer    Maximum-Head-Change  Column Row Layer    Maximum-Flux-Residual          L2-NORM 
          0                 1           2             2   13     1      -0.5274992550E-02       2   13    1        -0.2969864334E+00      0.7129872698E+00
          0                 2           2             4    7     1      -0.1168486526E-01       5    6    1        -0.6395632959E+00      0.1555146837E+01
          0                 3           2             4    7     1       0.7953258618E-03       5    6    1         0.4474735197E-01      0.1088031344E+00
          0                 4           1             4    7     1      -0.3164676362E-04       5    6    1        -0.1830007211E-02      0.4449561273E-02

    ------------------------------------------------
       NWT REQUIRED            4 OUTER ITERATIONS 
       AND A TOTAL OF          7 INNER ITERATIONS.
    ------------------------------------------------

 NO OUTPUT CONTROL FOR STRESS PERIOD    5   TIME STEP   15
 
 SOLVING FOR HEAD 
                                                   Max.-Head-Change                         Max.-Flux-Residual
  Residual-Control   Outer-Iter.   Inner-Iter.     Column Row Layer    Maximum-Head-Change  Column Row Layer    Maximum-Flux-Residual          L2-NORM 
          0                 1           2             2   13     1      -0.4877713055E-02       2   13    1        -0.2746118577E+00      0.6980465778E+00
          0                 2           2             4    7     1      -0.1169463878E-01       5    6    1        -0.6403858010E+00      0.1556800433E+01
          0                 3           2             4    7     1       0.7959914058E-03       5    6    1         0.4480519912E-01      0.1089199115E+00
          0                 4           1             4    7     1      -0.3167324619E-04       5    6    1        -0.1832399376E-02      0.4454402650E-02

    ------------------------------------------------
       NWT REQUIRED            4 OUTER ITERATIONS 
       AND A TOTAL OF          7 INNER ITERATIONS.
    ------------------------------------------------

 NO OUTPUT CONTROL FOR STRESS PERIOD    5   TIME STEP   16
 
 SOLVING FOR HEAD 
                                                   Max.-Head-Change                         Max.-Flux-Residual
  Residual-Control   Outer-Iter.   Inner-Iter.     Column Row Layer    Maximum-Head-Change  Column Row Layer    Maximum-Flux-Residual          L2-NORM 
          0                 1           2             2   13     1      -0.4510292640E-02       2   13    1        -0.2539170569E+00      0.6873359576E+00
          0                 2           2             4    7     1      -0.1170447707E-01       5    6    1        -0.6411739293E+00      0.1558423429E+01
          0                 3           2             4    7     1       0.7966613589E-03       5    6    1         0.4486051898E-01      0.1090343038E+00
          0                 4           1             4    7     1      -0.3169990422E-04       5    6    1        -0.1834676605E-02      0.4459140963E-02

    ------------------------------------------------
       NWT REQUIRED            4 OUTER ITERATIONS 
       AND A TOTAL OF          7 INNER ITERATIONS.
    ------------------------------------------------

 NO OUTPUT CONTROL FOR STRESS PERIOD    5   TIME STEP   17
 
 SOLVING FOR HEAD 
                                                   Max.-Head-Change                         Max.-Flux-Residual
  Residual-Control   Outer-Iter.   Inner-Iter.     Column Row Layer    Maximum-Head-Change  Column Row Layer    Maximum-Flux-Residual          L2-NORM 
          0                 1           2             2   13     1      -0.4170467085E-02       2   13    1        -0.2347750321E+00      0.6802239147E+00
          0                 2           2             4    7     1      -0.1171433713E-01       5    6    1        -0.6419265131E+00      0.1560011565E+01
          0                 3           2             4    7     1       0.7973327944E-03       5    6    1         0.4491334111E-01      0.1091461271E+00
          0                 4           1             4    7     1      -0.3172662119E-04       5    6    1        -0.1836850714E-02      0.4463746173E-02

    ------------------------------------------------
       NWT REQUIRED            4 OUTER ITERATIONS 
       AND A TOTAL OF          7 INNER ITERATIONS.
    ------------------------------------------------

 NO OUTPUT CONTROL FOR STRESS PERIOD    5   TIME STEP   18
 
 SOLVING FOR HEAD 
                                                   Max.-Head-Change                         Max.-Flux-Residual
  Residual-Control   Outer-Iter.   Inner-Iter.     Column Row Layer    Maximum-Head-Change  Column Row Layer    Maximum-Flux-Residual          L2-NORM 
          0                 1           2             5    6     1       0.4157280619E-02       5    6    1         0.2266943790E+00      0.6761743220E+00
          0                 2           2             4    7     1      -0.1172423081E-01       5    6    1        -0.6426490382E+00      0.1561566396E+01
          0                 3           2             4    7     1       0.7980065199E-03       5    6    1         0.4496404954E-01      0.1092555589E+00
          0                 4           1             4    7     1      -0.3175342934E-04       5    6    1        -0.1838937462E-02      0.4468284098E-02

    ------------------------------------------------
       NWT REQUIRED            4 OUTER ITERATIONS 
       AND A TOTAL OF          7 INNER ITERATIONS.
    ------------------------------------------------

 NO OUTPUT CONTROL FOR STRESS PERIOD    5   TIME STEP   19
 
 SOLVING FOR HEAD 
                                                   Max.-Head-Change                         Max.-Flux-Residual
  Residual-Control   Outer-Iter.   Inner-Iter.     Column Row Layer    Maximum-Head-Change  Column Row Layer    Maximum-Flux-Residual          L2-NORM 
          0                 1           2             5    6     1       0.4285130899E-02       5    6    1         0.2336209301E+00      0.6746731548E+00
          0                 2           2             4    7     1      -0.1173414346E-01       5    6    1        -0.6433416923E+00      0.1563086069E+01
          0                 3           2             4    7     1       0.7986815359E-03       5    6    1         0.4501265876E-01      0.1093625065E+00
          0                 4           1             4    7     1      -0.3178028930E-04       5    6    1        -0.1840937535E-02      0.4472686008E-02

    ------------------------------------------------
       NWT REQUIRED            4 OUTER ITERATIONS 
       AND A TOTAL OF          7 INNER ITERATIONS.
    ------------------------------------------------

 NO OUTPUT CONTROL FOR STRESS PERIOD    5   TIME STEP   20
 
 SOLVING FOR HEAD 
                                                   Max.-Head-Change                         Max.-Flux-Residual
  Residual-Control   Outer-Iter.   Inner-Iter.     Column Row Layer    Maximum-Head-Change  Column Row Layer    Maximum-Flux-Residual          L2-NORM 
          0                 1           2             5    6     1       0.4407583093E-02       5    6    1         0.2402498545E+00      0.6752887984E+00
          0                 2           2             4    7     1      -0.1174406120E-01       5    6    1        -0.6440045836E+00      0.1564569131E+01
          0                 3           2             4    7     1       0.7993568980E-03       5    6    1         0.4505917631E-01      0.1094671645E+00
          0                 4           1             4    7     1      -0.3180716193E-04       5    6    1        -0.1842851285E-02      0.4476974827E-02

    ------------------------------------------------
       NWT REQUIRED            4 OUTER ITERATIONS 
       AND A TOTAL OF          7 INNER ITERATIONS.
    ------------------------------------------------

 NO OUTPUT CONTROL FOR STRESS PERIOD    5   TIME STEP   21
 
 SOLVING FOR HEAD 
                                                   Max.-Head-Change                         Max.-Flux-Residual
  Residual-Control   Outer-Iter.   Inner-Iter.     Column Row Layer    Maximum-Head-Change  Column Row Layer    Maximum-Flux-Residual          L2-NORM 
          0                 1           2             5    6     1       0.4525564954E-02       5    6    1         0.2466321004E+00      0.6776637983E+00
          0                 2           2             4    7     1      -0.1175394633E-01       5    6    1        -0.6446428072E+00      0.1566010365E+01
          0                 3           2             4    7     1       0.8000300392E-03       5    6    1         0.4510395934E-01      0.1095681654E+00
          0                 4           1             4    7     1      -0.3183394728E-04       5    6    1        -0.1844693309E-02      0.4481148391E-02

    ------------------------------------------------
       NWT REQUIRED            4 OUTER ITERATIONS 
       AND A TOTAL OF          7 INNER ITERATIONS.
    ------------------------------------------------

 NO OUTPUT CONTROL FOR STRESS PERIOD    5   TIME STEP   22
 
 SOLVING FOR HEAD 
                                                   Max.-Head-Change                         Max.-Flux-Residual
  Residual-Control   Outer-Iter.   Inner-Iter.     Column Row Layer    Maximum-Head-Change  Column Row Layer    Maximum-Flux-Residual          L2-NORM 
          0                 1           2             5    6     1       0.4638733928E-02       5    6    1         0.2527493512E+00      0.6816734547E+00
          0                 2           2             4    7     1      -0.1176384129E-01       5    6    1        -0.6452545312E+00      0.1567439621E+01
          0                 3           2             4    7     1       0.8007038499E-03       5    6    1         0.4514688020E-01      0.1096685287E+00
          0                 4           1             4    7     1      -0.3186075866E-04       5    6    1        -0.1846458474E-02      0.4485286511E-02

    ------------------------------------------------
       NWT REQUIRED            4 OUTER ITERATIONS 
       AND A TOTAL OF          7 INNER ITERATIONS.
    ------------------------------------------------

 NO OUTPUT CONTROL FOR STRESS PERIOD    5   TIME STEP   23
 
 SOLVING FOR HEAD 
                                                   Max.-Head-Change                         Max.-Flux-Residual
  Residual-Control   Outer-Iter.   Inner-Iter.     Column Row Layer    Maximum-Head-Change  Column Row Layer    Maximum-Flux-Residual          L2-NORM 
          0                 1           2             5    6     1       0.4747664385E-02       5    6    1         0.2586336606E+00      0.6867653273E+00
          0                 2           2             4    7     1      -0.1177365539E-01       5    6    1        -0.6458429611E+00      0.1568823263E+01
          0                 3           2             4    7     1       0.8013756749E-03       5    6    1         0.4518816443E-01      0.1097610874E+00
          0                 4           1             4    8     1      -0.3208669588E-04       5    6    1        -0.1848156107E-02      0.4495512226E-02

    ------------------------------------------------
       NWT REQUIRED            4 OUTER ITERATIONS 
       AND A TOTAL OF          7 INNER ITERATIONS.
    ------------------------------------------------

 NO OUTPUT CONTROL FOR STRESS PERIOD    5   TIME STEP   24
 
 SOLVING FOR HEAD 
                                                   Max.-Head-Change                         Max.-Flux-Residual
  Residual-Control   Outer-Iter.   Inner-Iter.     Column Row Layer    Maximum-Head-Change  Column Row Layer    Maximum-Flux-Residual          L2-NORM 
          0                 1           2             5    6     1       0.4852593120E-02       5    6    1         0.2642982041E+00      0.6927084745E+00
          0                 2           2             5    7     1      -0.1178350137E-01       5    6    1        -0.6464094144E+00      0.1570173972E+01
          0                 3           2             5    7     1       0.8020450555E-03       5    6    1         0.4522790460E-01      0.1097794833E+00
          0                 4           1             5    7     1      -0.3191417165E-04       5    6    1        -0.1849790045E-02      0.4489872449E-02

    ------------------------------------------------
       NWT REQUIRED            4 OUTER ITERATIONS 
       AND A TOTAL OF          7 INNER ITERATIONS.
    ------------------------------------------------

 NO OUTPUT CONTROL FOR STRESS PERIOD    5   TIME STEP   25
 
 SOLVING FOR HEAD 
                                                   Max.-Head-Change                         Max.-Flux-Residual
  Residual-Control   Outer-Iter.   Inner-Iter.     Column Row Layer    Maximum-Head-Change  Column Row Layer    Maximum-Flux-Residual          L2-NORM 
          0                 1           2             5    6     1       0.4953752711E-02       5    6    1         0.2697552578E+00      0.6992764411E+00
          0                 2           2             5    7     1      -0.1179358784E-01       5    6    1        -0.6469551187E+00      0.1571491402E+01
          0                 3           2             5    7     1       0.8027304656E-03       5    6    1         0.4526618580E-01      0.1097977915E+00
          0                 4           1             5    7     1      -0.3194144423E-04       5    6    1        -0.1851363681E-02      0.4490649124E-02

    ------------------------------------------------
       NWT REQUIRED            4 OUTER ITERATIONS 
       AND A TOTAL OF          7 INNER ITERATIONS.
    ------------------------------------------------

 NO OUTPUT CONTROL FOR STRESS PERIOD    5   TIME STEP   26
 
 SOLVING FOR HEAD 
                                                   Max.-Head-Change                         Max.-Flux-Residual
  Residual-Control   Outer-Iter.   Inner-Iter.     Column Row Layer    Maximum-Head-Change  Column Row Layer    Maximum-Flux-Residual          L2-NORM 
          0                 1           2             5    6     1       0.5051348345E-02       5    6    1         0.2750168824E+00      0.7063847746E+00
          0                 2           2             5    7     1      -0.1180347030E-01       5    6    1        -0.6474812802E+00      0.1572766275E+01
          0                 3           2             5    7     1       0.8034062253E-03       5    6    1         0.4530309417E-01      0.1100426897E+00
          0                 4           1             5    7     1      -0.3196833343E-04       5    6    1        -0.1852880734E-02      0.4500707009E-02

    ------------------------------------------------
       NWT REQUIRED            4 OUTER ITERATIONS 
       AND A TOTAL OF          7 INNER ITERATIONS.
    ------------------------------------------------

 NO OUTPUT CONTROL FOR STRESS PERIOD    5   TIME STEP   27
 
 SOLVING FOR HEAD 
                                                   Max.-Head-Change                         Max.-Flux-Residual
  Residual-Control   Outer-Iter.   Inner-Iter.     Column Row Layer    Maximum-Head-Change  Column Row Layer    Maximum-Flux-Residual          L2-NORM 
          0                 1           2             5    6     1       0.5145279195E-02       5    6    1         0.2800771151E+00      0.7139026840E+00
          0                 2           2             5    7     1      -0.1181314771E-01       5    6    1        -0.6479873025E+00      0.1574016288E+01
          0                 3           2             5    7     1       0.8040652209E-03       5    6    1         0.4533858763E-01      0.1101303642E+00
          0                 4           1             5    7     1      -0.3199455581E-04       5    6    1        -0.1854339385E-02      0.4504286117E-02

    ------------------------------------------------
       NWT REQUIRED            4 OUTER ITERATIONS 
       AND A TOTAL OF          7 INNER ITERATIONS.
    ------------------------------------------------

 NO OUTPUT CONTROL FOR STRESS PERIOD    5   TIME STEP   28
 
 SOLVING FOR HEAD 
                                                   Max.-Head-Change                         Max.-Flux-Residual
  Residual-Control   Outer-Iter.   Inner-Iter.     Column Row Layer    Maximum-Head-Change  Column Row Layer    Maximum-Flux-Residual          L2-NORM 
          0                 1           2             5    6     1       0.5242574069E-02       5    6    1         0.2849639337E+00      0.8408736492E+00
          0                 2           2             5    7     1      -0.1182325351E-01       5    6    1        -0.6484759915E+00      0.1575803202E+01
          0                 3           2             5    7     1       0.8047533721E-03       5    6    1         0.4537272044E-01      0.1102532137E+00
          0                 4           1             5    7     1      -0.3202193891E-04       5    6    1        -0.1855728307E-02      0.4509184183E-02

    ------------------------------------------------
       NWT REQUIRED            4 OUTER ITERATIONS 
       AND A TOTAL OF          7 INNER ITERATIONS.
    ------------------------------------------------

 NO OUTPUT CONTROL FOR STRESS PERIOD    5   TIME STEP   29
 
 SOLVING FOR HEAD 
                                                   Max.-Head-Change                         Max.-Flux-Residual
  Residual-Control   Outer-Iter.   Inner-Iter.     Column Row Layer    Maximum-Head-Change  Column Row Layer    Maximum-Flux-Residual          L2-NORM 
          0                 1           2             4   13     1       0.2591910633E-01       4   13    1         0.1501266651E+01      0.2742566540E+01
          0                 2           2             5    7     1      -0.1183483730E-01       5    6    1        -0.6489821337E+00      0.1599875605E+01
          0                 3           2             5    7     1       0.8055421419E-03       5    6    1         0.4540529267E-01      0.1118065119E+00
          0                 4           1             5    7     1      -0.3205332707E-04       5    6    1        -0.1856783605E-02      0.4564649663E-02

    ------------------------------------------------
       NWT REQUIRED            4 OUTER ITERATIONS 
       AND A TOTAL OF          7 INNER ITERATIONS.
    ------------------------------------------------

 NO OUTPUT CONTROL FOR STRESS PERIOD    5   TIME STEP   30



 STREAM LISTING     PERIOD      5   STEP       30

 LAYER ROW COL. STREAM  RCH.  FLOW INTO     FLOW TO   FLOW OUT OF   OVRLND.     DIRECT     STREAM       STREAM     STREAM     STREAM   STREAMBED  STREAMBED
                SEG.NO.  NO.  STRM. RCH.    AQUIFER    STRM. RCH.    RUNOFF     PRECIP       ET          HEAD       DEPTH      WIDTH   CONDCTNC.   GRADIENT

   1    1    1     1     1    9.9000E+01  4.7281E-01   9.8528E+01  0.000E+00  0.000E+00  0.000E+00  1.09484E+03  1.796E+00  2.191E+01  9.859E-02  1.599E+00
   1    2    2     1     2    9.8528E+01  7.3365E-01   9.7794E+01  0.000E+00  0.000E+00  0.000E+00  1.08985E+03  1.793E+00  2.187E+01  1.531E-01  1.598E+00
   1    3    3     1     3    9.7794E+01  6.2707E-01   9.7167E+01  0.000E+00  0.000E+00  0.000E+00  1.08421E+03  1.791E+00  2.181E+01  1.309E-01  1.597E+00
   1    3    4     1     4    9.7167E+01  5.7859E-01   9.6588E+01  0.000E+00  0.000E+00  0.000E+00  1.07920E+03  1.789E+00  2.177E+01  1.208E-01  1.596E+00
   1    4    5     2     1    9.4588E+01  4.4299E-01   9.4145E+01  0.000E+00  0.000E+00  0.000E+00  1.07461E+03  2.679E+00  1.200E+01  7.800E-02  1.893E+00
   1    5    6     2     2    9.4145E+01  3.4036E-01   9.3805E+01  0.000E+00  0.000E+00  0.000E+00  1.06918E+03  2.673E+00  1.200E+01  6.000E-02  1.891E+00
   1    6    6     2     3    9.3805E+01  3.4001E-01   9.3465E+01  0.000E+00  0.000E+00  0.000E+00  1.06446E+03  2.667E+00  1.200E+01  6.000E-02  1.889E+00
   1    7    6     2     4    9.3465E+01  3.3967E-01   9.3125E+01  0.000E+00  0.000E+00  0.000E+00  1.05974E+03  2.661E+00  1.200E+01  6.000E-02  1.887E+00
   1    8    6     2     5    9.3125E+01  3.3932E-01   9.2786E+01  0.000E+00  0.000E+00  0.000E+00  1.05501E+03  2.655E+00  1.200E+01  6.000E-02  1.885E+00
   1    3    5     3     1    2.0000E+00  2.8252E-01   1.7175E+00  0.000E+00  0.000E+00  0.000E+00  1.07555E+03  1.909E+00  9.636E+00  7.227E-02  1.955E+00
   1    3    6     3     2    1.7175E+00  2.4905E-01   1.4684E+00  0.000E+00  0.000E+00  0.000E+00  1.07264E+03  1.727E+00  8.909E+00  6.682E-02  1.864E+00
   1    3    7     3     3    1.4684E+00  1.9718E-01   1.2712E+00  0.000E+00  0.000E+00  0.000E+00  1.06987E+03  1.555E+00  8.218E+00  5.547E-02  1.777E+00
   1    4    8     3     4    1.2712E+00  2.2567E-01   1.0456E+00  0.000E+00  0.000E+00  0.000E+00  1.06682E+03  1.364E+00  7.455E+00  6.709E-02  1.682E+00
   1    5    8     3     5    1.0456E+00  1.5790E-01   8.8768E-01  0.000E+00  0.000E+00  0.000E+00  1.06362E+03  1.164E+00  6.655E+00  4.991E-02  1.582E+00
   1    6    8     3     6    8.8768E-01  5.5980E-02   8.3170E-01  0.000E+00  0.000E+00  0.000E+00  1.06158E+03  1.036E+00  6.145E+00  1.844E-02  1.518E+00
   1    5   10     4     1    1.0000E+01  9.0919E-02   9.9091E+00  0.000E+00  0.000E+00  0.000E+00  1.07836E+03  6.368E-01  1.000E+01  2.500E-02  1.212E+00
   1    5    9     4     2    9.9091E+00  1.8158E-01   9.7275E+00  0.000E+00  0.000E+00  0.000E+00  1.07154E+03  6.315E-01  1.000E+01  5.000E-02  1.211E+00
   1    6    8     4     3    9.7275E+00  1.2689E-01   9.6006E+00  0.000E+00  0.000E+00  0.000E+00  1.06381E+03  6.256E-01  1.000E+01  3.500E-02  1.209E+00
   1    6    8     5     1    1.0432E+01  2.2686E-01   1.0205E+01  0.000E+00  0.000E+00  0.000E+00  1.05868E+03  6.790E-01  1.542E+01  6.166E-02  1.226E+00
   1    7    7     5     2    1.0205E+01  2.7894E-01   9.9265E+00  0.000E+00  0.000E+00  0.000E+00  1.05417E+03  6.732E-01  1.519E+01  7.594E-02  1.224E+00
   1    8    7     5     3    9.9265E+00  1.9221E-01   9.7343E+00  0.000E+00  0.000E+00  0.000E+00  1.04992E+03  6.676E-01  1.497E+01  5.241E-02  1.223E+00
   1    8    6     5     4    9.7343E+00  1.3577E-01   9.5985E+00  0.000E+00  0.000E+00  0.000E+00  1.04691E+03  6.637E-01  1.482E+01  3.706E-02  1.221E+00
   1    9    6     6     1    1.0238E+02  3.5054E-01   1.0203E+02  0.000E+00  0.000E+00  0.000E+00  1.04557E+03  2.842E+00  1.200E+01  6.000E-02  1.947E+00
   1   10    7     6     2    1.0203E+02  3.5018E-01   1.0168E+02  0.000E+00  0.000E+00  0.000E+00  1.04102E+03  2.836E+00  1.200E+01  6.000E-02  1.945E+00
   1   11    7     6     3    1.0168E+02  3.4983E-01   1.0133E+02  0.000E+00  0.000E+00  0.000E+00  1.03647E+03  2.831E+00  1.200E+01  6.000E-02  1.944E+00
   1   12    7     6     4    1.0133E+02  3.4948E-01   1.0098E+02  0.000E+00  0.000E+00  0.000E+00  1.03192E+03  2.825E+00  1.200E+01  6.000E-02  1.942E+00
   1   13    7     6     5    1.0098E+02  3.7134E-02   1.0095E+02  0.000E+00  0.000E+00  0.000E+00  1.02873E+03  2.821E+00  1.200E+01  2.400E-02  5.158E-01
   1   14    9     7     1    1.5000E+02  1.3318E+00   1.4867E+02  0.000E+00  0.000E+00  0.000E+00  1.03987E+03  2.288E+00  5.529E+01  5.593E-01  7.937E-01
   1   13    8     7     2    1.4867E+02  1.8109E+00   1.4686E+02  0.000E+00  0.000E+00  0.000E+00  1.03478E+03  2.279E+00  5.526E+01  6.148E-01  9.819E-01
   1   13    7     7     3    1.4686E+02  1.4000E+00   1.4546E+02  0.000E+00  0.000E+00  0.000E+00  1.02969E+03  2.271E+00  5.522E+01  5.585E-01  8.356E-01
   1   13    6     8     1    2.4640E+02  1.1761E+00   2.4523E+02  0.000E+00  0.000E+00  0.000E+00  1.02527E+03  3.390E+00  4.916E+01  5.009E-01  7.826E-01
   1   13    5     8     2    2.4523E+02  3.1456E-01   2.4491E+02  0.000E+00  0.000E+00  0.000E+00  1.01901E+03  3.386E+00  4.910E+01  5.003E-01  2.096E-01
   1   13    4     8     3    2.4491E+02 -1.2778E+00   2.4619E+02  0.000E+00  0.000E+00  0.000E+00  1.01276E+03  3.389E+00  4.914E+01  5.007E+00 -8.506E-02
   1   13    3     8     4    2.4619E+02 -2.5237E+00   2.4872E+02  0.000E+00  0.000E+00  0.000E+00  1.00652E+03  3.399E+00  4.928E+01  5.022E+00 -1.675E-01
   1   13    2     8     5    2.4872E+02 -1.3007E+00   2.5002E+02  0.000E+00  0.000E+00  0.000E+00  1.00028E+03  3.408E+00  4.942E+01  5.036E+00 -8.609E-02
   1   13    1     8     6    2.5002E+02 -1.2936E+00   2.5131E+02  0.000E+00  0.000E+00  0.000E+00  9.95290E+02  3.415E+00  4.952E+01  3.028E+00 -1.424E-01





UNSATURATED ZONE PACKAGE VOLUMETRIC BUDGET FOR  TIME STEP    30 STRESS PERIOD    5
  ------------------------------------------------------------------------------



     CUMULATIVE VOLUMES      L**3       RATES FOR THIS TIME STEP      L**3/T
     ------------------                 ------------------------

           IN:                                      IN:
           ---                                      ---
        INFILTRATION =    18772626.5024          INFILTRATION =           4.5675

          OUT:                                     OUT:
          ----                                     ----
              UZF ET =    18698714.0577                UZF ET =           4.5675
        UZF RECHARGE =       73224.0000          UZF RECHARGE =       0.0000E+00

            IN - OUT =         688.4448              IN - OUT =       0.0000E+00

          STORAGE:                                 STORAGE:
          --------                                 --------
      STORAGE CHANGE =         688.4959        STORAGE CHANGE =      -2.8666E-12

 PERCENT DISCREPANCY IS DIFFERENCE BETWEEN IN-OUT MINUS CHANGE IN STORAGE
 DIVIDED BY THE AVERAGE OF IN AND OUT TIMES 100

 PERCENT DISCREPANCY =           0.00     PERCENT DISCREPANCY =           0.00






1
  VOLUMETRIC BUDGET FOR AGRICULTURAL FIELDS AT  END OF TIME STEP   30, STRESS PERIOD   5
  ------------------------------------------------------------------------------

     CUMULATIVE VOLUMES      L**3       RATES FOR THIS TIME STEP      L**3/T
     ------------------                 ------------------------

           IN:                                      IN:
           ---                                      ---
           AG WELLS      =     9783704.0000             AG WELLS      =           3.7200
      DIVERSION SEGMENTS =           0.0000        DIVERSION SEGMENTS =           0.0000
           GW IRRIGATION =           0.0000             GW IRRIGATION =           0.0000
           SW IRRIGATION =           0.0000             SW IRRIGATION =           0.0000
        SYSTEM LOSSES GW =           0.0000          SYSTEM LOSSES GW =           0.0000
        SYSTEM LOSSES SW =           0.0000          SYSTEM LOSSES SW =           0.0000

                TOTAL IN =     9783704.0000                  TOTAL IN =           3.7200

          OUT:                                     OUT:
          ----                                     ----
           AG WELLS      =           0.0000             AG WELLS      =           0.0000
      DIVERSION SEGMENTS =           0.0000        DIVERSION SEGMENTS =           0.0000
           GW IRRIGATION =     9783704.0000             GW IRRIGATION =           3.7200
           SW IRRIGATION =           0.0000             SW IRRIGATION =           0.0000
        SYSTEM LOSSES GW =           0.0000          SYSTEM LOSSES GW =           0.0000
        SYSTEM LOSSES SW =           0.0000          SYSTEM LOSSES SW =           0.0000

               TOTAL OUT =     9783704.0000                 TOTAL OUT =           3.7200

                IN - OUT =           0.0000                  IN - OUT =           0.0000

     PERCENT DISCREPANCY =           0.00         PERCENT DISCREPANCY =           0.00



1
  VOLUMETRIC BUDGET FOR ENTIRE MODEL AT END OF TIME STEP   30, STRESS PERIOD   5
  ------------------------------------------------------------------------------

     CUMULATIVE VOLUMES      L**3       RATES FOR THIS TIME STEP      L**3/T
     ------------------                 ------------------------

           IN:                                      IN:
           ---                                      ---
             STORAGE     =    17886918.0000               STORAGE     =           3.4385
       CONSTANT HEAD     =           0.0000         CONSTANT HEAD     =           0.0000
     HEAD DEP BOUNDS     =     3027432.2500       HEAD DEP BOUNDS     =           0.2855
      STREAM LEAKAGE     =   129797984.0000        STREAM LEAKAGE     =          14.0865
        UZF RECHARGE     =       73223.9531          UZF RECHARGE     =           0.0000
               GW ET     =           0.0000                 GW ET     =           0.0000
     SURFACE LEAKAGE     =           0.0000       SURFACE LEAKAGE     =           0.0000
           AG WELLS      =           0.0000             AG WELLS      =           0.0000

                TOTAL IN =   150785552.0000                  TOTAL IN =          17.8105

          OUT:                                     OUT:
          ----                                     ----
             STORAGE     =    25817580.0000               STORAGE     =           7.3455
       CONSTANT HEAD     =           0.0000         CONSTANT HEAD     =           0.0000
     HEAD DEP BOUNDS     =     3102142.7500       HEAD DEP BOUNDS     =           0.2933
      STREAM LEAKAGE     =   111847944.0000        STREAM LEAKAGE     =           6.3958
        UZF RECHARGE     =           0.0000          UZF RECHARGE     =           0.0000
               GW ET     =      238986.5156                 GW ET     =       5.5743E-02
     SURFACE LEAKAGE     =           0.0000       SURFACE LEAKAGE     =           0.0000
           AG WELLS      =     9783704.0000             AG WELLS      =           3.7200

               TOTAL OUT =   150790368.0000                 TOTAL OUT =          17.8103

                IN - OUT =       -4816.0000                  IN - OUT =       1.6975E-04

     PERCENT DISCREPANCY =          -0.00         PERCENT DISCREPANCY =           0.00






         TIME SUMMARY AT END OF TIME STEP   30 IN STRESS PERIOD    5
                    SECONDS     MINUTES      HOURS       DAYS        YEARS
                    -----------------------------------------------------------
   TIME STEP LENGTH  87667.      1461.1      24.352      1.0147     2.77799E-03
 STRESS PERIOD TIME 2.63000E+06  43833.      730.56      30.440     8.33397E-02
         TOTAL TIME 1.06064E+07 1.76773E+05  2946.2      122.76     0.33610    
1
1
                            STRESS PERIOD NO.    6, LENGTH =   2630000.    
                            -----------------------------------------------

                              NUMBER OF TIME STEPS =    30

                               MULTIPLIER FOR DELT =     1.000

                            INITIAL TIME STEP SIZE =   87666.66    

 REUSING NON-PARAMETER GHB CELLS FROM LAST STRESS PERIOD

      2 GHB CELLS

 REUSING STREAM SEGMENT DATA FROM LAST STRESS PERIOD



            AREAL INFILTRATION RATE
 READING ON UNIT   19 WITH FORMAT: (FREE)              

            1           2           3           4           5           6           7           8           9          10
 ........................................................................................................................
   1   1.0000E-10  2.0000E-10   0.000       0.000       0.000       0.000       0.000       0.000       0.000       0.000    
   2   2.0000E-10  1.0000E-10  2.0000E-10   0.000       0.000      8.0000E-10  8.0000E-10  5.0000E-10   0.000       0.000    
   3    0.000      5.0000E-10  1.0000E-10  1.0000E-10  8.0000E-10  8.0000E-10  5.0000E-10  5.0000E-10   0.000       0.000    
   4   8.0000E-10  5.0000E-10  1.0000E-10  1.0000E-10  1.0000E-10  1.0000E-10  1.0000E-10  1.0000E-10  2.0000E-10   0.000    
   5   8.0000E-10  5.0000E-10  1.0000E-10  1.0000E-10  1.0000E-10  1.0000E-10  1.0000E-10  1.0000E-10  1.0000E-10  1.0000E-10
   6   8.0000E-10  5.0000E-10  5.0000E-10  2.0000E-10  2.0000E-10  1.0000E-10  1.0000E-10  1.0000E-10  1.0000E-10  5.0000E-10
   7   8.0000E-10  5.0000E-10  5.0000E-10  2.0000E-10  2.0000E-10  1.0000E-10  1.0000E-10  2.0000E-10  2.0000E-10   0.000    
   8    0.000      5.0000E-10  5.0000E-10  2.0000E-10  2.0000E-10  1.0000E-10  1.0000E-10  2.0000E-10  5.0000E-10   0.000    
   9    0.000      5.0000E-10  5.0000E-10  2.0000E-10  2.0000E-10  1.0000E-10  1.0000E-10  2.0000E-10  5.0000E-10   0.000    
  10    0.000      5.0000E-10  5.0000E-10  2.0000E-10  2.0000E-10  1.0000E-10  1.0000E-10  2.0000E-10  5.0000E-10  8.0000E-10
  11    0.000      1.0000E-10  1.0000E-10  1.0000E-10  1.0000E-10  1.0000E-10  1.0000E-10  2.0000E-10  5.0000E-10   0.000    
  12   1.0000E-10  1.0000E-10  1.0000E-10  1.0000E-10  1.0000E-10  1.0000E-10  1.0000E-10  1.0000E-10  2.0000E-10   0.000    
  13   1.0000E-10  1.0000E-10  2.0000E-10  2.0000E-10  2.0000E-10  2.0000E-10  2.0000E-10  1.0000E-10  1.0000E-10   0.000    
  14    0.000      2.0000E-10  5.0000E-10  5.0000E-10  5.0000E-10  5.0000E-10  5.0000E-10  2.0000E-10  1.0000E-10   0.000    
  15    0.000       0.000      8.0000E-10  8.0000E-10  8.0000E-10  8.0000E-10   0.000       0.000       0.000       0.000    

                  ET RATE =  5.000000E-08

 USING ET EXTINCTION DEPTH FROM PREVIOUS STRESS PERIOD. CURRENT PERIOD IS:       6

 USING EXTINCTION WATER CONTENT FROM PREVIOUS STRESS PERIOD. CURRENT PERIOD IS:       6

 USING AIR ENTRY PRESSURE FROM PREVIOUS STRESS PERIOD. CURRENT PERIOD IS:       6

 USING ROOT PRESSURE HEAD FROM PREVIOUS STRESS PERIOD. CURRENT PERIOD IS:       6

 USING ROOT ACTIVITY FROM PREVIOUS STRESS PERIOD. CURRENT PERIOD IS:       6

 PROCESSING AG STRESS PERIOD DATA

 READING AG STRESS PERIOD DATA

 READING IRRIGATION WELL

 END PROCESSING AG STRESS PERIOD DATA OPTIONS
 
 SOLVING FOR HEAD 
                                                   Max.-Head-Change                         Max.-Flux-Residual
  Residual-Control   Outer-Iter.   Inner-Iter.     Column Row Layer    Maximum-Head-Change  Column Row Layer    Maximum-Flux-Residual          L2-NORM 
          0                 1           2             2   13     1       0.2250399068E-01       4   13    1         0.1302941954E+01      0.3463269126E+01
          0                 2           2             4   13     1      -0.2084563075E-02       4   13    1        -0.1289054525E+00      0.3415683815E+00
          0                 3           2             4   13     1       0.1398227761E-03       4   13    1         0.8889936958E-02      0.2347382710E-01
          0                 4           1             4    7     1       0.5521178475E-05       4   13    1        -0.3551734972E-03      0.9335210032E-03

    ------------------------------------------------
       NWT REQUIRED            4 OUTER ITERATIONS 
       AND A TOTAL OF          7 INNER ITERATIONS.
    ------------------------------------------------

 NO OUTPUT CONTROL FOR STRESS PERIOD    6   TIME STEP    1
 
 SOLVING FOR HEAD 
                                                   Max.-Head-Change                         Max.-Flux-Residual
  Residual-Control   Outer-Iter.   Inner-Iter.     Column Row Layer    Maximum-Head-Change  Column Row Layer    Maximum-Flux-Residual          L2-NORM 
          0                 1           2             2   13     1       0.2063683014E-01       2   13    1         0.1173044447E+01      0.2286900323E+01
          0                 2           2             4    7     1      -0.2340949345E-01       5    6    1        -0.1272036749E+01      0.3107692425E+01
          0                 3           2             4    7     1       0.1593906636E-02       5    6    1         0.8902205900E-01      0.2174581524E+00
          0                 4           1             4    7     1      -0.6342305063E-04       5    6    1        -0.3640047449E-02      0.8890751936E-02

    ------------------------------------------------
       NWT REQUIRED            4 OUTER ITERATIONS 
       AND A TOTAL OF          7 INNER ITERATIONS.
    ------------------------------------------------

 NO OUTPUT CONTROL FOR STRESS PERIOD    6   TIME STEP    2
 
 SOLVING FOR HEAD 
                                                   Max.-Head-Change                         Max.-Flux-Residual
  Residual-Control   Outer-Iter.   Inner-Iter.     Column Row Layer    Maximum-Head-Change  Column Row Layer    Maximum-Flux-Residual          L2-NORM 
          0                 1           2             2   13     1       0.1891851505E-01       2   13    1         0.1075525711E+01      0.2117089390E+01
          0                 2           2             4    7     1      -0.2351643596E-01       5    6    1        -0.1279117918E+01      0.3122413318E+01
          0                 3           2             4    7     1       0.1601189024E-02       5    6    1         0.8951844742E-01      0.2184969542E+00
          0                 4           1             4    7     1      -0.6371282380E-04       5    6    1        -0.3660418433E-02      0.8933699394E-02

    ------------------------------------------------
       NWT REQUIRED            4 OUTER ITERATIONS 
       AND A TOTAL OF          7 INNER ITERATIONS.
    ------------------------------------------------

 NO OUTPUT CONTROL FOR STRESS PERIOD    6   TIME STEP    3
 
 SOLVING FOR HEAD 
                                                   Max.-Head-Change                         Max.-Flux-Residual
  Residual-Control   Outer-Iter.   Inner-Iter.     Column Row Layer    Maximum-Head-Change  Column Row Layer    Maximum-Flux-Residual          L2-NORM 
          0                 1           2             2   13     1       0.1733827809E-01       2   13    1         0.9858053518E+00      0.1977058515E+01
          0                 2           2             4    7     1      -0.2353282890E-01       5    6    1        -0.1281224284E+01      0.3125362840E+01
          0                 3           2             4    7     1       0.1602305345E-02       5    6    1         0.8966662114E-01      0.2187103335E+00
          0                 4           1             4    7     1      -0.6375724279E-04       5    6    1        -0.3666549366E-02      0.8942858094E-02

    ------------------------------------------------
       NWT REQUIRED            4 OUTER ITERATIONS 
       AND A TOTAL OF          7 INNER ITERATIONS.
    ------------------------------------------------

 NO OUTPUT CONTROL FOR STRESS PERIOD    6   TIME STEP    4
 
 SOLVING FOR HEAD 
                                                   Max.-Head-Change                         Max.-Flux-Residual
  Residual-Control   Outer-Iter.   Inner-Iter.     Column Row Layer    Maximum-Head-Change  Column Row Layer    Maximum-Flux-Residual          L2-NORM 
          0                 1           2             2   13     1       0.1588609031E-01       2   13    1         0.9033235541E+00      0.1862890515E+01
          0                 2           2             4    7     1      -0.2354953476E-01       5    6    1        -0.1283227124E+01      0.3128391300E+01
          0                 3           2             4    7     1       0.1603442971E-02       5    6    1         0.8980750392E-01      0.2189280390E+00
          0                 4           1             4    7     1      -0.6380251005E-04       5    6    1        -0.3672377796E-02      0.8952040224E-02

    ------------------------------------------------
       NWT REQUIRED            4 OUTER ITERATIONS 
       AND A TOTAL OF          7 INNER ITERATIONS.
    ------------------------------------------------

 NO OUTPUT CONTROL FOR STRESS PERIOD    6   TIME STEP    5
 
 SOLVING FOR HEAD 
                                                   Max.-Head-Change                         Max.-Flux-Residual
  Residual-Control   Outer-Iter.   Inner-Iter.     Column Row Layer    Maximum-Head-Change  Column Row Layer    Maximum-Flux-Residual          L2-NORM 
          0                 1           2             2   13     1       0.1455241081E-01       2   13    1         0.8275465433E+00      0.1771112945E+01
          0                 2           2             4    7     1      -0.2356653725E-01       5    6    1        -0.1285134716E+01      0.3131460769E+01
          0                 3           2             4    7     1       0.1604600795E-02       5    6    1         0.8994167736E-01      0.2191476817E+00
          0                 4           1             4    7     1      -0.6384858089E-04       5    6    1        -0.3677927770E-02      0.8961282755E-02

    ------------------------------------------------
       NWT REQUIRED            4 OUTER ITERATIONS 
       AND A TOTAL OF          7 INNER ITERATIONS.
    ------------------------------------------------

 NO OUTPUT CONTROL FOR STRESS PERIOD    6   TIME STEP    6
 
 SOLVING FOR HEAD 
                                                   Max.-Head-Change                         Max.-Flux-Residual
  Residual-Control   Outer-Iter.   Inner-Iter.     Column Row Layer    Maximum-Head-Change  Column Row Layer    Maximum-Flux-Residual          L2-NORM 
          0                 1           2             2   13     1       0.1332827106E-01       2   13    1         0.7579714801E+00      0.1698559189E+01
          0                 2           2             4    7     1      -0.2358376911E-01       5    6    1        -0.1286953164E+01      0.3134541637E+01
          0                 3           2             4    7     1       0.1605774237E-02       5    6    1         0.9006957343E-01      0.2193673923E+00
          0                 4           1             4    7     1      -0.6389527319E-04       5    6    1        -0.3683217380E-02      0.8970528554E-02

    ------------------------------------------------
       NWT REQUIRED            4 OUTER ITERATIONS 
       AND A TOTAL OF          7 INNER ITERATIONS.
    ------------------------------------------------

 NO OUTPUT CONTROL FOR STRESS PERIOD    6   TIME STEP    7
 
 SOLVING FOR HEAD 
                                                   Max.-Head-Change                         Max.-Flux-Residual
  Residual-Control   Outer-Iter.   Inner-Iter.     Column Row Layer    Maximum-Head-Change  Column Row Layer    Maximum-Flux-Residual          L2-NORM 
          0                 1           2             2   13     1       0.1220541408E-01       2   13    1         0.6941350591E+00      0.1642349158E+01
          0                 2           2             4    7     1      -0.2360119232E-01       5    6    1        -0.1288686418E+01      0.3137609876E+01
          0                 3           2             4    7     1       0.1606960707E-02       5    6    1         0.9019146863E-01      0.2195854638E+00
          0                 4           1             4    7     1      -0.6394248402E-04       5    6    1        -0.3688257909E-02      0.8981348690E-02

    ------------------------------------------------
       NWT REQUIRED            4 OUTER ITERATIONS 
       AND A TOTAL OF          7 INNER ITERATIONS.
    ------------------------------------------------

 NO OUTPUT CONTROL FOR STRESS PERIOD    6   TIME STEP    8
 
 SOLVING FOR HEAD 
                                                   Max.-Head-Change                         Max.-Flux-Residual
  Residual-Control   Outer-Iter.   Inner-Iter.     Column Row Layer    Maximum-Head-Change  Column Row Layer    Maximum-Flux-Residual          L2-NORM 
          0                 1           2             2   13     1       0.1117595307E-01       2   13    1         0.6355935946E+00      0.1599910901E+01
          0                 2           2             4    7     1      -0.2361879848E-01       5    6    1        -0.1290341463E+01      0.3140651462E+01
          0                 3           2             4    7     1       0.1608159633E-02       5    6    1         0.9030785609E-01      0.2198012336E+00
          0                 4           1             4    7     1      -0.6399019037E-04       5    6    1        -0.3693069978E-02      0.8988601562E-02

    ------------------------------------------------
       NWT REQUIRED            4 OUTER ITERATIONS 
       AND A TOTAL OF          7 INNER ITERATIONS.
    ------------------------------------------------

 NO OUTPUT CONTROL FOR STRESS PERIOD    6   TIME STEP    9
 
 SOLVING FOR HEAD 
                                                   Max.-Head-Change                         Max.-Flux-Residual
  Residual-Control   Outer-Iter.   Inner-Iter.     Column Row Layer    Maximum-Head-Change  Column Row Layer    Maximum-Flux-Residual          L2-NORM 
          0                 1           2             2   13     1       0.1023226475E-01       2   13    1         0.5819174783E+00      0.1568955596E+01
          0                 2           2             4    7     1      -0.2363652767E-01       5    6    1        -0.1291919836E+01      0.3143652895E+01
          0                 3           2             4    7     1       0.1609366935E-02       5    6    1         0.9041884501E-01      0.2200138566E+00
          0                 4           1             4    7     1      -0.6403823035E-04       5    6    1        -0.3697658172E-02      0.8997486088E-02

    ------------------------------------------------
       NWT REQUIRED            4 OUTER ITERATIONS 
       AND A TOTAL OF          7 INNER ITERATIONS.
    ------------------------------------------------

 NO OUTPUT CONTROL FOR STRESS PERIOD    6   TIME STEP   10
 
 SOLVING FOR HEAD 
                                                   Max.-Head-Change                         Max.-Flux-Residual
  Residual-Control   Outer-Iter.   Inner-Iter.     Column Row Layer    Maximum-Head-Change  Column Row Layer    Maximum-Flux-Residual          L2-NORM 
          0                 1           2             2   13     1       0.9367725459E-02       2   13    1         0.5327334738E+00      0.1547484583E+01
          0                 2           2             4    7     1      -0.2365434962E-01       5    6    1        -0.1293429554E+01      0.3146607831E+01
          0                 3           2             4    7     1       0.1610580554E-02       5    6    1         0.9052499729E-01      0.2202228589E+00
          0                 4           1             4    7     1      -0.6408652086E-04       5    6    1        -0.3702045557E-02      0.9006159239E-02

    ------------------------------------------------
       NWT REQUIRED            4 OUTER ITERATIONS 
       AND A TOTAL OF          7 INNER ITERATIONS.
    ------------------------------------------------

 NO OUTPUT CONTROL FOR STRESS PERIOD    6   TIME STEP   11
 
 SOLVING FOR HEAD 
                                                   Max.-Head-Change                         Max.-Flux-Residual
  Residual-Control   Outer-Iter.   Inner-Iter.     Column Row Layer    Maximum-Head-Change  Column Row Layer    Maximum-Flux-Residual          L2-NORM 
          0                 1           2             5    6     1       0.9186160416E-02       5    6    1         0.4988539377E+00      0.1533802453E+01
          0                 2           2             4    7     1      -0.2367226353E-01       5    6    1        -0.1294874871E+01      0.3149511017E+01
          0                 3           2             4    7     1       0.1611800431E-02       5    6    1         0.9062661449E-01      0.2204280408E+00
          0                 4           1             4    7     1      -0.6413506119E-04       5    6    1        -0.3706244865E-02      0.9014695391E-02

    ------------------------------------------------
       NWT REQUIRED            4 OUTER ITERATIONS 
       AND A TOTAL OF          7 INNER ITERATIONS.
    ------------------------------------------------

 NO OUTPUT CONTROL FOR STRESS PERIOD    6   TIME STEP   12
 
 SOLVING FOR HEAD 
                                                   Max.-Head-Change                         Max.-Flux-Residual
  Residual-Control   Outer-Iter.   Inner-Iter.     Column Row Layer    Maximum-Head-Change  Column Row Layer    Maximum-Flux-Residual          L2-NORM 
          0                 1           2             5    6     1       0.9440695019E-02       5    6    1         0.5126684664E+00      0.1526420896E+01
          0                 2           2             4    7     1      -0.2369021469E-01       5    6    1        -0.1296256321E+01      0.3152355036E+01
          0                 3           2             4    7     1       0.1613022845E-02       5    6    1         0.9072373440E-01      0.2206287237E+00
          0                 4           1             4    7     1      -0.6418370168E-04       5    6    1        -0.3710257616E-02      0.9023028097E-02

    ------------------------------------------------
       NWT REQUIRED            4 OUTER ITERATIONS 
       AND A TOTAL OF          7 INNER ITERATIONS.
    ------------------------------------------------

 NO OUTPUT CONTROL FOR STRESS PERIOD    6   TIME STEP   13
 
 SOLVING FOR HEAD 
                                                   Max.-Head-Change                         Max.-Flux-Residual
  Residual-Control   Outer-Iter.   Inner-Iter.     Column Row Layer    Maximum-Head-Change  Column Row Layer    Maximum-Flux-Residual          L2-NORM 
          0                 1           2             5    6     1       0.9684641963E-02       5    6    1         0.5258990299E+00      0.1524128701E+01
          0                 2           2             4    7     1      -0.2370818012E-01       5    6    1        -0.1297579374E+01      0.3155140102E+01
          0                 3           2             4    7     1       0.1614246230E-02       5    6    1         0.9081674233E-01      0.2208250248E+00
          0                 4           1             4    7     1      -0.6423238131E-04       5    6    1        -0.3714099868E-02      0.9031158392E-02

    ------------------------------------------------
       NWT REQUIRED            4 OUTER ITERATIONS 
       AND A TOTAL OF          7 INNER ITERATIONS.
    ------------------------------------------------

 NO OUTPUT CONTROL FOR STRESS PERIOD    6   TIME STEP   14
 
 SOLVING FOR HEAD 
                                                   Max.-Head-Change                         Max.-Flux-Residual
  Residual-Control   Outer-Iter.   Inner-Iter.     Column Row Layer    Maximum-Head-Change  Column Row Layer    Maximum-Flux-Residual          L2-NORM 
          0                 1           2             5    6     1       0.9918328908E-02       5    6    1         0.5385640289E+00      0.1525896516E+01
          0                 2           2             4    7     1      -0.2372616356E-01       5    6    1        -0.1298845870E+01      0.3157863443E+01
          0                 3           2             4    7     1       0.1615470839E-02       5    6    1         0.9090576664E-01      0.2210169563E+00
          0                 4           1             4    7     1      -0.6428110953E-04       5    6    1        -0.3717776793E-02      0.9039092648E-02

    ------------------------------------------------
       NWT REQUIRED            4 OUTER ITERATIONS 
       AND A TOTAL OF          7 INNER ITERATIONS.
    ------------------------------------------------

 NO OUTPUT CONTROL FOR STRESS PERIOD    6   TIME STEP   15
 
 SOLVING FOR HEAD 
                                                   Max.-Head-Change                         Max.-Flux-Residual
  Residual-Control   Outer-Iter.   Inner-Iter.     Column Row Layer    Maximum-Head-Change  Column Row Layer    Maximum-Flux-Residual          L2-NORM 
          0                 1           2             5    6     1       0.1014294981E-01       5    6    1         0.5507302409E+00      0.1530931068E+01
          0                 2           2             4    7     1      -0.2374411768E-01       5    6    1        -0.1300062488E+01      0.3160527182E+01
          0                 3           2             4    7     1       0.1616693451E-02       5    6    1         0.9099127943E-01      0.2212044561E+00
          0                 4           1             4    7     1      -0.6432975877E-04       5    6    1        -0.3721308139E-02      0.9046857672E-02

    ------------------------------------------------
       NWT REQUIRED            4 OUTER ITERATIONS 
       AND A TOTAL OF          7 INNER ITERATIONS.
    ------------------------------------------------

 NO OUTPUT CONTROL FOR STRESS PERIOD    6   TIME STEP   16
 
 SOLVING FOR HEAD 
                                                   Max.-Head-Change                         Max.-Flux-Residual
  Residual-Control   Outer-Iter.   Inner-Iter.     Column Row Layer    Maximum-Head-Change  Column Row Layer    Maximum-Flux-Residual          L2-NORM 
          0                 1           2             5    6     1       0.1035843654E-01       5    6    1         0.5623931871E+00      0.1538512758E+01
          0                 2           2             4    7     1      -0.2376205019E-01       5    6    1        -0.1301228779E+01      0.3163129591E+01
          0                 3           2             4    7     1       0.1617914591E-02       5    6    1         0.9107324743E-01      0.2213874598E+00
          0                 4           1             4    7     1      -0.6437834906E-04       5    6    1        -0.3724692395E-02      0.9054395544E-02

    ------------------------------------------------
       NWT REQUIRED            4 OUTER ITERATIONS 
       AND A TOTAL OF          7 INNER ITERATIONS.
    ------------------------------------------------

 NO OUTPUT CONTROL FOR STRESS PERIOD    6   TIME STEP   17
 
 SOLVING FOR HEAD 
                                                   Max.-Head-Change                         Max.-Flux-Residual
  Residual-Control   Outer-Iter.   Inner-Iter.     Column Row Layer    Maximum-Head-Change  Column Row Layer    Maximum-Flux-Residual          L2-NORM 
          0                 1           2             5    6     1       0.1056561132E-01       5    6    1         0.5735991238E+00      0.1548106390E+01
          0                 2           2             4    7     1      -0.2377989006E-01       5    6    1        -0.1302349369E+01      0.3165670802E+01
          0                 3           2             4    7     1       0.1619129421E-02       5    6    1         0.9115199761E-01      0.2215660863E+00
          0                 4           1             4    7     1      -0.6442668792E-04       5    6    1        -0.3727943195E-02      0.9061757375E-02

    ------------------------------------------------
       NWT REQUIRED            4 OUTER ITERATIONS 
       AND A TOTAL OF          7 INNER ITERATIONS.
    ------------------------------------------------

 NO OUTPUT CONTROL FOR STRESS PERIOD    6   TIME STEP   18
 
 SOLVING FOR HEAD 
                                                   Max.-Head-Change                         Max.-Flux-Residual
  Residual-Control   Outer-Iter.   Inner-Iter.     Column Row Layer    Maximum-Head-Change  Column Row Layer    Maximum-Flux-Residual          L2-NORM 
          0                 1           2             5    6     1       0.1076464768E-01       5    6    1         0.5843574913E+00      0.1559264068E+01
          0                 2           2             4    7     1      -0.2379770280E-01       5    6    1        -0.1303425202E+01      0.3168153608E+01
          0                 3           2             4    7     1       0.1620342401E-02       5    6    1         0.9122759654E-01      0.2217405732E+00
          0                 4           1             4    7     1      -0.6447495355E-04       5    6    1        -0.3731063359E-02      0.9068947903E-02

    ------------------------------------------------
       NWT REQUIRED            4 OUTER ITERATIONS 
       AND A TOTAL OF          7 INNER ITERATIONS.
    ------------------------------------------------

 NO OUTPUT CONTROL FOR STRESS PERIOD    6   TIME STEP   19
 
 SOLVING FOR HEAD 
                                                   Max.-Head-Change                         Max.-Flux-Residual
  Residual-Control   Outer-Iter.   Inner-Iter.     Column Row Layer    Maximum-Head-Change  Column Row Layer    Maximum-Flux-Residual          L2-NORM 
          0                 1           2             5    6     1       0.1095630719E-01       5    6    1         0.5947104771E+00      0.1571610977E+01
          0                 2           2             4    7     1      -0.2381539224E-01       5    6    1        -0.1304460498E+01      0.3170576946E+01
          0                 3           2             4    7     1       0.1621546987E-02       5    6    1         0.9130034064E-01      0.2219108229E+00
          0                 4           1             4    7     1      -0.6452288532E-04       5    6    1        -0.3734065085E-02      0.9075980100E-02

    ------------------------------------------------
       NWT REQUIRED            4 OUTER ITERATIONS 
       AND A TOTAL OF          7 INNER ITERATIONS.
    ------------------------------------------------

 NO OUTPUT CONTROL FOR STRESS PERIOD    6   TIME STEP   20
 
 SOLVING FOR HEAD 
                                                   Max.-Head-Change                         Max.-Flux-Residual
  Residual-Control   Outer-Iter.   Inner-Iter.     Column Row Layer    Maximum-Head-Change  Column Row Layer    Maximum-Flux-Residual          L2-NORM 
          0                 1           2             5    6     1       0.1114070209E-01       5    6    1         0.6046643791E+00      0.1584865944E+01
          0                 2           2             5    7     1      -0.2383312444E-01       5    6    1        -0.1305455884E+01      0.3172943302E+01
          0                 3           2             5    7     1       0.1622756322E-02       5    6    1         0.9137027494E-01      0.2220769445E+00
          0                 4           1             5    7     1      -0.6457109845E-04       5    6    1        -0.3736950319E-02      0.9082790419E-02

    ------------------------------------------------
       NWT REQUIRED            4 OUTER ITERATIONS 
       AND A TOTAL OF          7 INNER ITERATIONS.
    ------------------------------------------------

 NO OUTPUT CONTROL FOR STRESS PERIOD    6   TIME STEP   21
 
 SOLVING FOR HEAD 
                                                   Max.-Head-Change                         Max.-Flux-Residual
  Residual-Control   Outer-Iter.   Inner-Iter.     Column Row Layer    Maximum-Head-Change  Column Row Layer    Maximum-Flux-Residual          L2-NORM 
          0                 1           2             5    6     1       0.1131853682E-01       5    6    1         0.6142582052E+00      0.1598797250E+01
          0                 2           2             5    7     1      -0.2385117163E-01       5    6    1        -0.1306415263E+01      0.3175253677E+01
          0                 3           2             5    7     1       0.1623985269E-02       5    6    1         0.9143767287E-01      0.2222391144E+00
          0                 4           1             5    7     1      -0.6461999913E-04       5    6    1        -0.3739730274E-02      0.9089461963E-02

    ------------------------------------------------
       NWT REQUIRED            4 OUTER ITERATIONS 
       AND A TOTAL OF          7 INNER ITERATIONS.
    ------------------------------------------------

 NO OUTPUT CONTROL FOR STRESS PERIOD    6   TIME STEP   22
 
 SOLVING FOR HEAD 
                                                   Max.-Head-Change                         Max.-Flux-Residual
  Residual-Control   Outer-Iter.   Inner-Iter.     Column Row Layer    Maximum-Head-Change  Column Row Layer    Maximum-Flux-Residual          L2-NORM 
          0                 1           2             5    6     1       0.1148987141E-01       5    6    1         0.6234952927E+00      0.1613207150E+01
          0                 2           2             5    7     1      -0.2386882510E-01       5    6    1        -0.1307338969E+01      0.3177508923E+01
          0                 3           2             5    7     1       0.1625187403E-02       5    6    1         0.9150255928E-01      0.2223973884E+00
          0                 4           1             5    7     1      -0.6466783304E-04       5    6    1        -0.3742406131E-02      0.9095975495E-02

    ------------------------------------------------
       NWT REQUIRED            4 OUTER ITERATIONS 
       AND A TOTAL OF          7 INNER ITERATIONS.
    ------------------------------------------------

 NO OUTPUT CONTROL FOR STRESS PERIOD    6   TIME STEP   23
 
 SOLVING FOR HEAD 
                                                   Max.-Head-Change                         Max.-Flux-Residual
  Residual-Control   Outer-Iter.   Inner-Iter.     Column Row Layer    Maximum-Head-Change  Column Row Layer    Maximum-Flux-Residual          L2-NORM 
          0                 1           2             5    6     1       0.1165506164E-01       5    6    1         0.6323953485E+00      0.1627950294E+01
          0                 2           2             5    7     1      -0.2388606727E-01       5    6    1        -0.1308228971E+01      0.3179711882E+01
          0                 3           2             5    7     1       0.1626361530E-02       5    6    1         0.9156507301E-01      0.2225519744E+00
          0                 4           1             5    7     1      -0.6471455274E-04       5    6    1        -0.3744983637E-02      0.9102324798E-02

    ------------------------------------------------
       NWT REQUIRED            4 OUTER ITERATIONS 
       AND A TOTAL OF          7 INNER ITERATIONS.
    ------------------------------------------------

 NO OUTPUT CONTROL FOR STRESS PERIOD    6   TIME STEP   24
 
 SOLVING FOR HEAD 
                                                   Max.-Head-Change                         Max.-Flux-Residual
  Residual-Control   Outer-Iter.   Inner-Iter.     Column Row Layer    Maximum-Head-Change  Column Row Layer    Maximum-Flux-Residual          L2-NORM 
          0                 1           2             5    6     1       0.1181444013E-01       5    6    1         0.6409768191E+00      0.1642898770E+01
          0                 2           2             5    7     1      -0.2390290937E-01       5    6    1        -0.1309087115E+01      0.3181862323E+01
          0                 3           2             5    7     1       0.1627508413E-02       5    6    1         0.9162529929E-01      0.2227027636E+00
          0                 4           1             5    7     1      -0.6476018863E-04       5    6    1        -0.3747461938E-02      0.9108511857E-02

    ------------------------------------------------
       NWT REQUIRED            4 OUTER ITERATIONS 
       AND A TOTAL OF          7 INNER ITERATIONS.
    ------------------------------------------------

 NO OUTPUT CONTROL FOR STRESS PERIOD    6   TIME STEP   25
 
 SOLVING FOR HEAD 
                                                   Max.-Head-Change                         Max.-Flux-Residual
  Residual-Control   Outer-Iter.   Inner-Iter.     Column Row Layer    Maximum-Head-Change  Column Row Layer    Maximum-Flux-Residual          L2-NORM 
          0                 1           2             5    6     1       0.1196862049E-01       5    6    1         0.6492735424E+00      0.1657974098E+01
          0                 2           2             5    7     1      -0.2391939289E-01       5    6    1        -0.1309916784E+01      0.3183964435E+01
          0                 3           2             5    7     1       0.1628630879E-02       5    6    1         0.9168349343E-01      0.2228500799E+00
          0                 4           1             5    7     1      -0.6480485215E-04       5    6    1        -0.3749853430E-02      0.9114557858E-02

    ------------------------------------------------
       NWT REQUIRED            4 OUTER ITERATIONS 
       AND A TOTAL OF          7 INNER ITERATIONS.
    ------------------------------------------------

 NO OUTPUT CONTROL FOR STRESS PERIOD    6   TIME STEP   26
 
 SOLVING FOR HEAD 
                                                   Max.-Head-Change                         Max.-Flux-Residual
  Residual-Control   Outer-Iter.   Inner-Iter.     Column Row Layer    Maximum-Head-Change  Column Row Layer    Maximum-Flux-Residual          L2-NORM 
          0                 1           2             5    6     1       0.1211757219E-01       5    6    1         0.6572841493E+00      0.1673077638E+01
          0                 2           2             4    7     1      -0.2393593074E-01       5    6    1        -0.1310717841E+01      0.3186017241E+01
          0                 3           2             4    7     1       0.1629755189E-02       5    6    1         0.9173964451E-01      0.2229938998E+00
          0                 4           1             4    7     1      -0.6484949748E-04       5    6    1        -0.3752157420E-02      0.9120445478E-02

    ------------------------------------------------
       NWT REQUIRED            4 OUTER ITERATIONS 
       AND A TOTAL OF          7 INNER ITERATIONS.
    ------------------------------------------------

 NO OUTPUT CONTROL FOR STRESS PERIOD    6   TIME STEP   27
 
 SOLVING FOR HEAD 
                                                   Max.-Head-Change                         Max.-Flux-Residual
  Residual-Control   Outer-Iter.   Inner-Iter.     Column Row Layer    Maximum-Head-Change  Column Row Layer    Maximum-Flux-Residual          L2-NORM 
          0                 1           2             5    6     1       0.1226157543E-01       5    6    1         0.6650236499E+00      0.1688160001E+01
          0                 2           2             4    7     1      -0.2395257394E-01       5    6    1        -0.1311491788E+01      0.3188023537E+01
          0                 3           2             4    7     1       0.1630888523E-02       5    6    1         0.9179382108E-01      0.2231343842E+00
          0                 4           1             4    7     1      -0.6489459365E-04       5    6    1        -0.3754373224E-02      0.9126193917E-02

    ------------------------------------------------
       NWT REQUIRED            4 OUTER ITERATIONS 
       AND A TOTAL OF          7 INNER ITERATIONS.
    ------------------------------------------------

 NO OUTPUT CONTROL FOR STRESS PERIOD    6   TIME STEP   28
 
 SOLVING FOR HEAD 
                                                   Max.-Head-Change                         Max.-Flux-Residual
  Residual-Control   Outer-Iter.   Inner-Iter.     Column Row Layer    Maximum-Head-Change  Column Row Layer    Maximum-Flux-Residual          L2-NORM 
          0                 1           2             5    6     1       0.1240087662E-01       5    6    1         0.6725065717E+00      0.1703161823E+01
          0                 2           2             4    7     1      -0.2396901190E-01       5    6    1        -0.1312240077E+01      0.3189983122E+01
          0                 3           2             4    7     1       0.1632007883E-02       5    6    1         0.9184620162E-01      0.2232716041E+00
          0                 4           1             4    7     1      -0.6493913399E-04       5    6    1        -0.3756515599E-02      0.9131806950E-02

    ------------------------------------------------
       NWT REQUIRED            4 OUTER ITERATIONS 
       AND A TOTAL OF          7 INNER ITERATIONS.
    ------------------------------------------------

 NO OUTPUT CONTROL FOR STRESS PERIOD    6   TIME STEP   29
 
 SOLVING FOR HEAD 
                                                   Max.-Head-Change                         Max.-Flux-Residual
  Residual-Control   Outer-Iter.   Inner-Iter.     Column Row Layer    Maximum-Head-Change  Column Row Layer    Maximum-Flux-Residual          L2-NORM 
          0                 1           2             5    6     1       0.1253384867E-01       5    6    1         0.6797456916E+00      0.1703304833E+01
          0                 2           2             4    7     1      -0.2398529214E-01       5    6    1        -0.1312963981E+01      0.3191822269E+01
          0                 3           2             4    7     1       0.1633116501E-02       5    6    1         0.9189687578E-01      0.2234005691E+00
          0                 4           1             4    7     1      -0.6498324720E-04       5    6    1        -0.3758588157E-02      0.9137095328E-02

    ------------------------------------------------
       NWT REQUIRED            4 OUTER ITERATIONS 
       AND A TOTAL OF          7 INNER ITERATIONS.
    ------------------------------------------------

 NO OUTPUT CONTROL FOR STRESS PERIOD    6   TIME STEP   30



 STREAM LISTING     PERIOD      6   STEP       30

 LAYER ROW COL. STREAM  RCH.  FLOW INTO     FLOW TO   FLOW OUT OF   OVRLND.     DIRECT     STREAM       STREAM     STREAM     STREAM   STREAMBED  STREAMBED
                SEG.NO.  NO.  STRM. RCH.    AQUIFER    STRM. RCH.    RUNOFF     PRECIP       ET          HEAD       DEPTH      WIDTH   CONDCTNC.   GRADIENT

   1    1    1     1     1    9.2355E+01  4.5966E-01   9.1895E+01  0.000E+00  0.000E+00  0.000E+00  1.09482E+03  1.771E+00  2.141E+01  9.635E-02  1.590E+00
   1    2    2     1     2    9.1895E+01  7.1318E-01   9.1182E+01  0.000E+00  0.000E+00  0.000E+00  1.08983E+03  1.769E+00  2.136E+01  1.496E-01  1.590E+00
   1    3    3     1     3    9.1182E+01  6.0950E-01   9.0573E+01  0.000E+00  0.000E+00  0.000E+00  1.08418E+03  1.766E+00  2.131E+01  1.279E-01  1.589E+00
   1    3    4     1     4    9.0573E+01  5.6231E-01   9.0010E+01  0.000E+00  0.000E+00  0.000E+00  1.07917E+03  1.764E+00  2.127E+01  1.180E-01  1.588E+00
   1    4    5     2     1    8.8010E+01  4.3413E-01   8.7576E+01  0.000E+00  0.000E+00  0.000E+00  1.07450E+03  2.566E+00  1.200E+01  7.800E-02  1.855E+00
   1    5    6     2     2    8.7576E+01  3.3354E-01   8.7243E+01  0.000E+00  0.000E+00  0.000E+00  1.06907E+03  2.559E+00  1.200E+01  6.000E-02  1.853E+00
   1    6    6     2     3    8.7243E+01  3.3319E-01   8.6909E+01  0.000E+00  0.000E+00  0.000E+00  1.06435E+03  2.553E+00  1.200E+01  6.000E-02  1.851E+00
   1    7    6     2     4    8.6909E+01  3.3284E-01   8.6576E+01  0.000E+00  0.000E+00  0.000E+00  1.05962E+03  2.547E+00  1.200E+01  6.000E-02  1.849E+00
   1    8    6     2     5    8.6576E+01  3.3249E-01   8.6244E+01  0.000E+00  0.000E+00  0.000E+00  1.05490E+03  2.541E+00  1.200E+01  6.000E-02  1.847E+00
   1    3    5     3     1    2.0000E+00  2.8252E-01   1.7175E+00  0.000E+00  0.000E+00  0.000E+00  1.07555E+03  1.909E+00  9.636E+00  7.227E-02  1.955E+00
   1    3    6     3     2    1.7175E+00  2.4905E-01   1.4684E+00  0.000E+00  0.000E+00  0.000E+00  1.07264E+03  1.727E+00  8.909E+00  6.682E-02  1.864E+00
   1    3    7     3     3    1.4684E+00  1.9718E-01   1.2712E+00  0.000E+00  0.000E+00  0.000E+00  1.06987E+03  1.555E+00  8.218E+00  5.547E-02  1.777E+00
   1    4    8     3     4    1.2712E+00  2.2567E-01   1.0456E+00  0.000E+00  0.000E+00  0.000E+00  1.06682E+03  1.364E+00  7.455E+00  6.709E-02  1.682E+00
   1    5    8     3     5    1.0456E+00  1.5790E-01   8.8768E-01  0.000E+00  0.000E+00  0.000E+00  1.06362E+03  1.164E+00  6.655E+00  4.991E-02  1.582E+00
   1    6    8     3     6    8.8768E-01  5.5980E-02   8.3170E-01  0.000E+00  0.000E+00  0.000E+00  1.06158E+03  1.036E+00  6.145E+00  1.844E-02  1.518E+00
   1    5   10     4     1    1.0000E+01  9.0919E-02   9.9091E+00  0.000E+00  0.000E+00  0.000E+00  1.07836E+03  6.368E-01  1.000E+01  2.500E-02  1.212E+00
   1    5    9     4     2    9.9091E+00  1.8158E-01   9.7275E+00  0.000E+00  0.000E+00  0.000E+00  1.07154E+03  6.315E-01  1.000E+01  5.000E-02  1.211E+00
   1    6    8     4     3    9.7275E+00  1.2689E-01   9.6006E+00  0.000E+00  0.000E+00  0.000E+00  1.06381E+03  6.256E-01  1.000E+01  3.500E-02  1.209E+00
   1    6    8     5     1    1.0432E+01  2.2686E-01   1.0205E+01  0.000E+00  0.000E+00  0.000E+00  1.05868E+03  6.790E-01  1.542E+01  6.166E-02  1.226E+00
   1    7    7     5     2    1.0205E+01  2.7894E-01   9.9265E+00  0.000E+00  0.000E+00  0.000E+00  1.05417E+03  6.732E-01  1.519E+01  7.594E-02  1.224E+00
   1    8    7     5     3    9.9265E+00  1.9221E-01   9.7343E+00  0.000E+00  0.000E+00  0.000E+00  1.04992E+03  6.676E-01  1.497E+01  5.241E-02  1.223E+00
   1    8    6     5     4    9.7343E+00  1.3577E-01   9.5985E+00  0.000E+00  0.000E+00  0.000E+00  1.04691E+03  6.637E-01  1.482E+01  3.706E-02  1.221E+00
   1    9    6     6     1    9.5843E+01  3.4390E-01   9.5499E+01  0.000E+00  0.000E+00  0.000E+00  1.04546E+03  2.732E+00  1.200E+01  6.000E-02  1.911E+00
   1   10    7     6     2    9.5499E+01  3.4355E-01   9.5155E+01  0.000E+00  0.000E+00  0.000E+00  1.04091E+03  2.726E+00  1.200E+01  6.000E-02  1.909E+00
   1   11    7     6     3    9.5155E+01  3.4320E-01   9.4812E+01  0.000E+00  0.000E+00  0.000E+00  1.03636E+03  2.720E+00  1.200E+01  6.000E-02  1.907E+00
   1   12    7     6     4    9.4812E+01  3.4284E-01   9.4469E+01  0.000E+00  0.000E+00  0.000E+00  1.03180E+03  2.714E+00  1.200E+01  6.000E-02  1.905E+00
   1   13    7     6     5    9.4469E+01  3.3805E-02   9.4435E+01  0.000E+00  0.000E+00  0.000E+00  1.02862E+03  2.711E+00  1.200E+01  2.400E-02  4.695E-01
   1   14    9     7     1    1.5000E+02  1.3319E+00   1.4867E+02  0.000E+00  0.000E+00  0.000E+00  1.03987E+03  2.288E+00  5.529E+01  5.593E-01  7.938E-01
   1   13    8     7     2    1.4867E+02  1.8070E+00   1.4686E+02  0.000E+00  0.000E+00  0.000E+00  1.03478E+03  2.279E+00  5.526E+01  6.148E-01  9.797E-01
   1   13    7     7     3    1.4686E+02  1.3844E+00   1.4548E+02  0.000E+00  0.000E+00  0.000E+00  1.02969E+03  2.271E+00  5.522E+01  5.585E-01  8.263E-01
   1   13    6     8     1    2.3991E+02  1.1021E+00   2.3881E+02  0.000E+00  0.000E+00  0.000E+00  1.02523E+03  3.356E+00  4.867E+01  4.959E-01  7.407E-01
   1   13    5     8     2    2.3881E+02  2.5269E-01   2.3856E+02  0.000E+00  0.000E+00  0.000E+00  1.01898E+03  3.353E+00  4.862E+01  4.954E-01  1.700E-01
   1   13    4     8     3    2.3856E+02 -2.1548E+00   2.4071E+02  0.000E+00  0.000E+00  0.000E+00  1.01273E+03  3.358E+00  4.869E+01  4.962E+00 -1.448E-01
   1   13    3     8     4    2.4071E+02 -3.3590E+00   2.4407E+02  0.000E+00  0.000E+00  0.000E+00  1.00650E+03  3.372E+00  4.890E+01  4.983E+00 -2.247E-01
   1   13    2     8     5    2.4407E+02 -2.5225E+00   2.4659E+02  0.000E+00  0.000E+00  0.000E+00  1.00026E+03  3.388E+00  4.912E+01  5.005E+00 -1.680E-01
   1   13    1     8     6    2.4659E+02 -1.8906E+00   2.4848E+02  0.000E+00  0.000E+00  0.000E+00  9.95274E+02  3.399E+00  4.928E+01  3.013E+00 -2.091E-01





UNSATURATED ZONE PACKAGE VOLUMETRIC BUDGET FOR  TIME STEP    30 STRESS PERIOD    6
  ------------------------------------------------------------------------------



     CUMULATIVE VOLUMES      L**3       RATES FOR THIS TIME STEP      L**3/T
     ------------------                 ------------------------

           IN:                                      IN:
           ---                                      ---
        INFILTRATION =    40647712.6445          INFILTRATION =           8.3175

          OUT:                                     OUT:
          ----                                     ----
              UZF ET =    40573737.9966                UZF ET =           8.3175
        UZF RECHARGE =       73224.0000          UZF RECHARGE =       0.0000E+00

            IN - OUT =         750.6479              IN - OUT =       0.0000E+00

          STORAGE:                                 STORAGE:
          --------                                 --------
      STORAGE CHANGE =         750.6813        STORAGE CHANGE =      -7.7486E-14

 PERCENT DISCREPANCY IS DIFFERENCE BETWEEN IN-OUT MINUS CHANGE IN STORAGE
 DIVIDED BY THE AVERAGE OF IN AND OUT TIMES 100

 PERCENT DISCREPANCY =           0.00     PERCENT DISCREPANCY =           0.00






1
  VOLUMETRIC BUDGET FOR AGRICULTURAL FIELDS AT  END OF TIME STEP   30, STRESS PERIOD   6
  ------------------------------------------------------------------------------

     CUMULATIVE VOLUMES      L**3       RATES FOR THIS TIME STEP      L**3/T
     ------------------                 ------------------------

           IN:                                      IN:
           ---                                      ---
           AG WELLS      =    29429866.0000             AG WELLS      =           7.4700
      DIVERSION SEGMENTS =           0.0000        DIVERSION SEGMENTS =           0.0000
           GW IRRIGATION =           0.0000             GW IRRIGATION =           0.0000
           SW IRRIGATION =           0.0000             SW IRRIGATION =           0.0000
        SYSTEM LOSSES GW =           0.0000          SYSTEM LOSSES GW =           0.0000
        SYSTEM LOSSES SW =           0.0000          SYSTEM LOSSES SW =           0.0000

                TOTAL IN =    29429866.0000                  TOTAL IN =           7.4700

          OUT:                                     OUT:
          ----                                     ----
           AG WELLS      =           0.0000             AG WELLS      =           0.0000
      DIVERSION SEGMENTS =           0.0000        DIVERSION SEGMENTS =           0.0000
           GW IRRIGATION =    29429866.0000             GW IRRIGATION =           7.4700
           SW IRRIGATION =           0.0000             SW IRRIGATION =           0.0000
        SYSTEM LOSSES GW =           0.0000          SYSTEM LOSSES GW =           0.0000
        SYSTEM LOSSES SW =           0.0000          SYSTEM LOSSES SW =           0.0000

               TOTAL OUT =    29429866.0000                 TOTAL OUT =           7.4700

                IN - OUT =           0.0000                  IN - OUT =           0.0000

     PERCENT DISCREPANCY =           0.00         PERCENT DISCREPANCY =           0.00



1
  VOLUMETRIC BUDGET FOR ENTIRE MODEL AT END OF TIME STEP   30, STRESS PERIOD   6
  ------------------------------------------------------------------------------

     CUMULATIVE VOLUMES      L**3       RATES FOR THIS TIME STEP      L**3/T
     ------------------                 ------------------------

           IN:                                      IN:
           ---                                      ---
             STORAGE     =    36216068.0000               STORAGE     =           7.0075
       CONSTANT HEAD     =           0.0000         CONSTANT HEAD     =           0.0000
     HEAD DEP BOUNDS     =     3778269.5000       HEAD DEP BOUNDS     =           0.2855
      STREAM LEAKAGE     =   166669760.0000        STREAM LEAKAGE     =          13.7976
        UZF RECHARGE     =       73223.9531          UZF RECHARGE     =           0.0000
               GW ET     =           0.0000                 GW ET     =           0.0000
     SURFACE LEAKAGE     =           0.0000       SURFACE LEAKAGE     =           0.0000
           AG WELLS      =           0.0000             AG WELLS      =           0.0000

                TOTAL IN =   206737312.0000                  TOTAL IN =          21.0906

          OUT:                                     OUT:
          ----                                     ----
             STORAGE     =    36776536.0000               STORAGE     =           2.5503
       CONSTANT HEAD     =           0.0000         CONSTANT HEAD     =           0.0000
     HEAD DEP BOUNDS     =     3885197.7500       HEAD DEP BOUNDS     =           0.3003
      STREAM LEAKAGE     =   134604464.0000        STREAM LEAKAGE     =           9.9268
        UZF RECHARGE     =           0.0000          UZF RECHARGE     =           0.0000
               GW ET     =     2045263.8750                 GW ET     =           0.8429
     SURFACE LEAKAGE     =           0.0000       SURFACE LEAKAGE     =           0.0000
           AG WELLS      =    29429866.0000             AG WELLS      =           7.4700

               TOTAL OUT =   206741328.0000                 TOTAL OUT =          21.0903

                IN - OUT =       -4016.0000                  IN - OUT =       2.8610E-04

     PERCENT DISCREPANCY =          -0.00         PERCENT DISCREPANCY =           0.00






         TIME SUMMARY AT END OF TIME STEP   30 IN STRESS PERIOD    6
                    SECONDS     MINUTES      HOURS       DAYS        YEARS
                    -----------------------------------------------------------
   TIME STEP LENGTH  87667.      1461.1      24.352      1.0147     2.77799E-03
 STRESS PERIOD TIME 2.63000E+06  43833.      730.56      30.440     8.33397E-02
         TOTAL TIME 1.32364E+07 2.20607E+05  3676.8      153.20     0.41944    
1
1
                            STRESS PERIOD NO.    7, LENGTH =   2630000.    
                            -----------------------------------------------

                              NUMBER OF TIME STEPS =    30

                               MULTIPLIER FOR DELT =     1.000

                            INITIAL TIME STEP SIZE =   87666.66    

 REUSING NON-PARAMETER GHB CELLS FROM LAST STRESS PERIOD

      2 GHB CELLS

 REUSING STREAM SEGMENT DATA FROM LAST STRESS PERIOD



            AREAL INFILTRATION RATE
 READING ON UNIT   19 WITH FORMAT: (FREE)              

            1           2           3           4           5           6           7           8           9          10
 ........................................................................................................................
   1   1.0000E-10  2.0000E-10   0.000       0.000       0.000       0.000       0.000       0.000       0.000       0.000    
   2   2.0000E-10  1.0000E-10  2.0000E-10   0.000       0.000      8.0000E-10  8.0000E-10  5.0000E-10   0.000       0.000    
   3    0.000      5.0000E-10  1.0000E-10  1.0000E-10  8.0000E-10  8.0000E-10  5.0000E-10  5.0000E-10   0.000       0.000    
   4   8.0000E-10  5.0000E-10  1.0000E-10  1.0000E-10  1.0000E-10  1.0000E-10  1.0000E-10  1.0000E-10  2.0000E-10   0.000    
   5   8.0000E-10  5.0000E-10  1.0000E-10  1.0000E-10  1.0000E-10  1.0000E-10  1.0000E-10  1.0000E-10  1.0000E-10  1.0000E-10
   6   8.0000E-10  5.0000E-10  5.0000E-10  2.0000E-10  2.0000E-10  1.0000E-10  1.0000E-10  1.0000E-10  1.0000E-10  5.0000E-10
   7   8.0000E-10  5.0000E-10  5.0000E-10  2.0000E-10  2.0000E-10  1.0000E-10  1.0000E-10  2.0000E-10  2.0000E-10   0.000    
   8    0.000      5.0000E-10  5.0000E-10  2.0000E-10  2.0000E-10  1.0000E-10  1.0000E-10  2.0000E-10  5.0000E-10   0.000    
   9    0.000      5.0000E-10  5.0000E-10  2.0000E-10  2.0000E-10  1.0000E-10  1.0000E-10  2.0000E-10  5.0000E-10   0.000    
  10    0.000      5.0000E-10  5.0000E-10  2.0000E-10  2.0000E-10  1.0000E-10  1.0000E-10  2.0000E-10  5.0000E-10  8.0000E-10
  11    0.000      1.0000E-10  1.0000E-10  1.0000E-10  1.0000E-10  1.0000E-10  1.0000E-10  2.0000E-10  5.0000E-10   0.000    
  12   1.0000E-10  1.0000E-10  1.0000E-10  1.0000E-10  1.0000E-10  1.0000E-10  1.0000E-10  1.0000E-10  2.0000E-10   0.000    
  13   1.0000E-10  1.0000E-10  2.0000E-10  2.0000E-10  2.0000E-10  2.0000E-10  2.0000E-10  1.0000E-10  1.0000E-10   0.000    
  14    0.000      2.0000E-10  5.0000E-10  5.0000E-10  5.0000E-10  5.0000E-10  5.0000E-10  2.0000E-10  1.0000E-10   0.000    
  15    0.000       0.000      8.0000E-10  8.0000E-10  8.0000E-10  8.0000E-10   0.000       0.000       0.000       0.000    

                  ET RATE =  1.500000E-07

 USING ET EXTINCTION DEPTH FROM PREVIOUS STRESS PERIOD. CURRENT PERIOD IS:       7

 USING EXTINCTION WATER CONTENT FROM PREVIOUS STRESS PERIOD. CURRENT PERIOD IS:       7

 USING AIR ENTRY PRESSURE FROM PREVIOUS STRESS PERIOD. CURRENT PERIOD IS:       7

 USING ROOT PRESSURE HEAD FROM PREVIOUS STRESS PERIOD. CURRENT PERIOD IS:       7

 USING ROOT ACTIVITY FROM PREVIOUS STRESS PERIOD. CURRENT PERIOD IS:       7

 PROCESSING AG STRESS PERIOD DATA

 READING AG STRESS PERIOD DATA

 READING IRRIGATION WELL

 END PROCESSING AG STRESS PERIOD DATA OPTIONS
 
 SOLVING FOR HEAD 
                                                   Max.-Head-Change                         Max.-Flux-Residual
  Residual-Control   Outer-Iter.   Inner-Iter.     Column Row Layer    Maximum-Head-Change  Column Row Layer    Maximum-Flux-Residual          L2-NORM 
          0                 1           2             4    7     1      -0.6352013233E-01       4    7    1        -0.3321243781E+01      0.7976741635E+01
          0                 2           2             4    7     1       0.6178732658E-02       4    7    1         0.3321215925E+00      0.7970775047E+00
          0                 3           2             4    7     1      -0.4207534968E-03       4    7    1        -0.2324878405E-01      0.5574308594E-01
          0                 4           1             4    7     1       0.1673796986E-04       4    7    1         0.9506380534E-03      0.2276014363E-02

    ------------------------------------------------
       NWT REQUIRED            4 OUTER ITERATIONS 
       AND A TOTAL OF          7 INNER ITERATIONS.
    ------------------------------------------------

 NO OUTPUT CONTROL FOR STRESS PERIOD    7   TIME STEP    1
 
 SOLVING FOR HEAD 
                                                   Max.-Head-Change                         Max.-Flux-Residual
  Residual-Control   Outer-Iter.   Inner-Iter.     Column Row Layer    Maximum-Head-Change  Column Row Layer    Maximum-Flux-Residual          L2-NORM 
          0                 1           2             3   13     1      -0.1411960436E-01       4   13    1        -0.9081580732E+00      0.2263257675E+01
          0                 2           2             4    7     1      -0.7061652594E-01       5    6    1        -0.3821383130E+01      0.9330618092E+01
          0                 3           2             4    7     1       0.4808691209E-02       5    6    1         0.2674685840E+00      0.6530797498E+00
          0                 4           2             4    7     1      -0.1913466585E-03       5    6    1        -0.1093713106E-01      0.2670802182E-01
          0                 5           1             4    7     1       0.2355296972E-05       5    6    1         0.1381925752E-03      0.3380500074E-03

    ------------------------------------------------
       NWT REQUIRED            5 OUTER ITERATIONS 
       AND A TOTAL OF          9 INNER ITERATIONS.
    ------------------------------------------------

 NO OUTPUT CONTROL FOR STRESS PERIOD    7   TIME STEP    2
 
 SOLVING FOR HEAD 
                                                   Max.-Head-Change                         Max.-Flux-Residual
  Residual-Control   Outer-Iter.   Inner-Iter.     Column Row Layer    Maximum-Head-Change  Column Row Layer    Maximum-Flux-Residual          L2-NORM 
          0                 1           2             5    6     1       0.1540870198E-01       5    6    1         0.8373447797E+00      0.2264110913E+01
          0                 2           2             4    7     1      -0.7065902642E-01       5    6    1        -0.3828707843E+01      0.9343212077E+01
          0                 3           2             4    7     1       0.4811110320E-02       5    6    1         0.2679579349E+00      0.6539018052E+00
          0                 4           2             4    7     1      -0.1914429162E-03       5    6    1        -0.1095742203E-01      0.2674180566E-01
          0                 5           1             4    7     1       0.2360574215E-05       5    6    1         0.1387069242E-03      0.3389881497E-03

    ------------------------------------------------
       NWT REQUIRED            5 OUTER ITERATIONS 
       AND A TOTAL OF          9 INNER ITERATIONS.
    ------------------------------------------------

 NO OUTPUT CONTROL FOR STRESS PERIOD    7   TIME STEP    3
 
 SOLVING FOR HEAD 
                                                   Max.-Head-Change                         Max.-Flux-Residual
  Residual-Control   Outer-Iter.   Inner-Iter.     Column Row Layer    Maximum-Head-Change  Column Row Layer    Maximum-Flux-Residual          L2-NORM 
          0                 1           2             5    6     1       0.1667753420E-01       5    6    1         0.9068159129E+00      0.2314945983E+01
          0                 2           2             4    7     1      -0.7070305033E-01       5    6    1        -0.3835654815E+01      0.9355492299E+01
          0                 3           2             4    7     1       0.4814099804E-02       5    6    1         0.2684464034E+00      0.6547647861E+00
          0                 4           2             4    7     1      -0.1915576650E-03       5    6    1        -0.1097741972E-01      0.2677668845E-01
          0                 5           1             4    7     1       0.2361988514E-05       5    6    1         0.1389778554E-03      0.3393618951E-03

    ------------------------------------------------
       NWT REQUIRED            5 OUTER ITERATIONS 
       AND A TOTAL OF          9 INNER ITERATIONS.
    ------------------------------------------------

 NO OUTPUT CONTROL FOR STRESS PERIOD    7   TIME STEP    4
 
 SOLVING FOR HEAD 
                                                   Max.-Head-Change                         Max.-Flux-Residual
  Residual-Control   Outer-Iter.   Inner-Iter.     Column Row Layer    Maximum-Head-Change  Column Row Layer    Maximum-Flux-Residual          L2-NORM 
          0                 1           2             5    6     1       0.1788309439E-01       5    6    1         0.9727690017E+00      0.2396775962E+01
          0                 2           2             4    7     1      -0.7074843904E-01       5    6    1        -0.3842250087E+01      0.9367438760E+01
          0                 3           2             4    7     1       0.4817190845E-02       5    6    1         0.2689105550E+00      0.6556056082E+00
          0                 4           2             4    7     1      -0.1916806598E-03       5    6    1        -0.1099664429E-01      0.2681131537E-01
          0                 5           1             4    7     1       0.2363505643E-05       5    6    1         0.1392378233E-03      0.3397562289E-03

    ------------------------------------------------
       NWT REQUIRED            5 OUTER ITERATIONS 
       AND A TOTAL OF          9 INNER ITERATIONS.
    ------------------------------------------------

 OUTPUT CONTROL FOR STRESS PERIOD    7   TIME STEP    5
    PRINT BUDGET
    SAVE BUDGET
 UBDSV1 SAVING "         STORAGE" ON UNIT 102 AT TIME STEP 5, STRESS PERIOD 7
 UBDSV2 SAVING "   CONSTANT HEAD" ON UNIT 102 AT TIME STEP 5, STRESS PERIOD 7
 UBDSV1 SAVING "FLOW RIGHT FACE " ON UNIT 102 AT TIME STEP 5, STRESS PERIOD 7
 UBDSV1 SAVING "FLOW FRONT FACE " ON UNIT 102 AT TIME STEP 5, STRESS PERIOD 7

  HEAD DEP BOUNDS   PERIOD    7   STEP     5
 BOUNDARY      1   LAYER   1   ROW    13   COL     1   RATE   -0.300147    
 BOUNDARY      2   LAYER   1   ROW    14   COL     9   RATE    0.285491    



 STREAM LISTING     PERIOD      7   STEP        5

 LAYER ROW COL. STREAM  RCH.  FLOW INTO     FLOW TO   FLOW OUT OF   OVRLND.     DIRECT     STREAM       STREAM     STREAM     STREAM   STREAMBED  STREAMBED
                SEG.NO.  NO.  STRM. RCH.    AQUIFER    STRM. RCH.    RUNOFF     PRECIP       ET          HEAD       DEPTH      WIDTH   CONDCTNC.   GRADIENT

   1    1    1     1     1    8.3000E+01  4.4019E-01   8.2560E+01  0.000E+00  0.000E+00  0.000E+00  1.09478E+03  1.734E+00  2.066E+01  9.299E-02  1.578E+00
   1    2    2     1     2    8.2560E+01  6.8286E-01   8.1877E+01  0.000E+00  0.000E+00  0.000E+00  1.08979E+03  1.731E+00  2.062E+01  1.443E-01  1.577E+00
   1    3    3     1     3    8.1877E+01  5.8349E-01   8.1294E+01  0.000E+00  0.000E+00  0.000E+00  1.08415E+03  1.729E+00  2.057E+01  1.234E-01  1.576E+00
   1    3    4     1     4    8.1294E+01  5.3822E-01   8.0756E+01  0.000E+00  0.000E+00  0.000E+00  1.07913E+03  1.726E+00  2.052E+01  1.139E-01  1.575E+00
   1    4    5     2     1    7.8756E+01  4.2120E-01   7.8334E+01  0.000E+00  0.000E+00  0.000E+00  1.07433E+03  2.400E+00  1.200E+01  7.800E-02  1.800E+00
   1    5    6     2     2    7.8334E+01  3.2359E-01   7.8011E+01  0.000E+00  0.000E+00  0.000E+00  1.06890E+03  2.393E+00  1.200E+01  6.000E-02  1.798E+00
   1    6    6     2     3    7.8011E+01  3.2323E-01   7.7688E+01  0.000E+00  0.000E+00  0.000E+00  1.06418E+03  2.387E+00  1.200E+01  6.000E-02  1.796E+00
   1    7    6     2     4    7.7688E+01  3.2288E-01   7.7365E+01  0.000E+00  0.000E+00  0.000E+00  1.05946E+03  2.381E+00  1.200E+01  6.000E-02  1.794E+00
   1    8    6     2     5    7.7365E+01  3.2252E-01   7.7042E+01  0.000E+00  0.000E+00  0.000E+00  1.05473E+03  2.375E+00  1.200E+01  6.000E-02  1.792E+00
   1    3    5     3     1    2.0000E+00  2.8252E-01   1.7175E+00  0.000E+00  0.000E+00  0.000E+00  1.07555E+03  1.909E+00  9.636E+00  7.227E-02  1.955E+00
   1    3    6     3     2    1.7175E+00  2.4905E-01   1.4684E+00  0.000E+00  0.000E+00  0.000E+00  1.07264E+03  1.727E+00  8.909E+00  6.682E-02  1.864E+00
   1    3    7     3     3    1.4684E+00  1.9718E-01   1.2712E+00  0.000E+00  0.000E+00  0.000E+00  1.06987E+03  1.555E+00  8.218E+00  5.547E-02  1.777E+00
   1    4    8     3     4    1.2712E+00  2.2567E-01   1.0456E+00  0.000E+00  0.000E+00  0.000E+00  1.06682E+03  1.364E+00  7.455E+00  6.709E-02  1.682E+00
   1    5    8     3     5    1.0456E+00  1.5790E-01   8.8768E-01  0.000E+00  0.000E+00  0.000E+00  1.06362E+03  1.164E+00  6.655E+00  4.991E-02  1.582E+00
   1    6    8     3     6    8.8768E-01  5.5980E-02   8.3170E-01  0.000E+00  0.000E+00  0.000E+00  1.06158E+03  1.036E+00  6.145E+00  1.844E-02  1.518E+00
   1    5   10     4     1    1.0000E+01  9.0919E-02   9.9091E+00  0.000E+00  0.000E+00  0.000E+00  1.07836E+03  6.368E-01  1.000E+01  2.500E-02  1.212E+00
   1    5    9     4     2    9.9091E+00  1.8158E-01   9.7275E+00  0.000E+00  0.000E+00  0.000E+00  1.07154E+03  6.315E-01  1.000E+01  5.000E-02  1.211E+00
   1    6    8     4     3    9.7275E+00  1.2689E-01   9.6006E+00  0.000E+00  0.000E+00  0.000E+00  1.06381E+03  6.256E-01  1.000E+01  3.500E-02  1.209E+00
   1    6    8     5     1    1.0432E+01  2.2686E-01   1.0205E+01  0.000E+00  0.000E+00  0.000E+00  1.05868E+03  6.790E-01  1.542E+01  6.166E-02  1.226E+00
   1    7    7     5     2    1.0205E+01  2.7894E-01   9.9265E+00  0.000E+00  0.000E+00  0.000E+00  1.05417E+03  6.732E-01  1.519E+01  7.594E-02  1.224E+00
   1    8    7     5     3    9.9265E+00  1.9221E-01   9.7343E+00  0.000E+00  0.000E+00  0.000E+00  1.04992E+03  6.676E-01  1.497E+01  5.241E-02  1.223E+00
   1    8    6     5     4    9.7343E+00  1.3577E-01   9.5985E+00  0.000E+00  0.000E+00  0.000E+00  1.04691E+03  6.637E-01  1.482E+01  3.706E-02  1.221E+00
   1    9    6     6     1    8.6641E+01  3.3426E-01   8.6306E+01  0.000E+00  0.000E+00  0.000E+00  1.04530E+03  2.571E+00  1.200E+01  6.000E-02  1.857E+00
   1   10    7     6     2    8.6306E+01  3.3390E-01   8.5973E+01  0.000E+00  0.000E+00  0.000E+00  1.04075E+03  2.565E+00  1.200E+01  6.000E-02  1.855E+00
   1   11    7     6     3    8.5973E+01  3.3354E-01   8.5639E+01  0.000E+00  0.000E+00  0.000E+00  1.03620E+03  2.559E+00  1.200E+01  6.000E-02  1.853E+00
   1   12    7     6     4    8.5639E+01  3.3319E-01   8.5306E+01  0.000E+00  0.000E+00  0.000E+00  1.03164E+03  2.553E+00  1.200E+01  6.000E-02  1.851E+00
   1   13    7     6     5    8.5306E+01  2.9844E-02   8.5276E+01  0.000E+00  0.000E+00  0.000E+00  1.02846E+03  2.550E+00  1.200E+01  2.400E-02  4.145E-01
   1   14    9     7     1    1.5000E+02  1.3319E+00   1.4867E+02  0.000E+00  0.000E+00  0.000E+00  1.03987E+03  2.288E+00  5.529E+01  5.593E-01  7.938E-01
   1   13    8     7     2    1.4867E+02  1.8062E+00   1.4686E+02  0.000E+00  0.000E+00  0.000E+00  1.03478E+03  2.279E+00  5.526E+01  6.148E-01  9.793E-01
   1   13    7     7     3    1.4686E+02  1.3821E+00   1.4548E+02  0.000E+00  0.000E+00  0.000E+00  1.02969E+03  2.271E+00  5.522E+01  5.585E-01  8.249E-01
   1   13    6     8     1    2.3076E+02  1.0601E+00   2.2970E+02  0.000E+00  0.000E+00  0.000E+00  1.02518E+03  3.308E+00  4.796E+01  4.888E-01  7.230E-01
   1   13    5     8     2    2.2970E+02  2.2370E-01   2.2947E+02  0.000E+00  0.000E+00  0.000E+00  1.01893E+03  3.304E+00  4.791E+01  4.882E-01  1.527E-01
   1   13    4     8     3    2.2947E+02 -2.0979E+00   2.3157E+02  0.000E+00  0.000E+00  0.000E+00  1.01268E+03  3.309E+00  4.799E+01  4.890E+00 -1.430E-01
   1   13    3     8     4    2.3157E+02 -3.2813E+00   2.3485E+02  0.000E+00  0.000E+00  0.000E+00  1.00645E+03  3.324E+00  4.819E+01  4.911E+00 -2.227E-01
   1   13    2     8     5    2.3485E+02 -2.6428E+00   2.3749E+02  0.000E+00  0.000E+00  0.000E+00  1.00021E+03  3.340E+00  4.842E+01  4.935E+00 -1.785E-01
   1   13    1     8     6    2.3749E+02 -1.9963E+00   2.3949E+02  0.000E+00  0.000E+00  0.000E+00  9.95227E+02  3.352E+00  4.860E+01  2.972E+00 -2.239E-01



 UBDSV3 SAVING "           GW ET" ON UNIT  61 AT TIME STEP 5, STRESS PERIOD 7
 UBDSV3 SAVING "    UZF RECHARGE" ON UNIT  61 AT TIME STEP 5, STRESS PERIOD 7
 UBDSV3 SAVING " SURFACE LEAKAGE" ON UNIT  61 AT TIME STEP 5, STRESS PERIOD 7
 UBDSV3 SAVING "       HORT+DUNN" ON UNIT  61 AT TIME STEP 5, STRESS PERIOD 7
 UBDSV3 SAVING "  STORAGE CHANGE" ON UNIT  61 AT TIME STEP 5, STRESS PERIOD 7


UNSATURATED ZONE PACKAGE VOLUMETRIC BUDGET FOR  TIME STEP     5 STRESS PERIOD    7
  ------------------------------------------------------------------------------



     CUMULATIVE VOLUMES      L**3       RATES FOR THIS TIME STEP      L**3/T
     ------------------                 ------------------------

           IN:                                      IN:
           ---                                      ---
        INFILTRATION =    50871167.4364          INFILTRATION =          23.3175

          OUT:                                     OUT:
          ----                                     ----
              UZF ET =    50794576.0385                UZF ET =          23.3175
        UZF RECHARGE =       73224.0000          UZF RECHARGE =       0.0000E+00

            IN - OUT =        3367.3979              IN - OUT =       0.0000E+00

          STORAGE:                                 STORAGE:
          --------                                 --------
      STORAGE CHANGE =        3367.4603        STORAGE CHANGE =       3.3446E-12

 PERCENT DISCREPANCY IS DIFFERENCE BETWEEN IN-OUT MINUS CHANGE IN STORAGE
 DIVIDED BY THE AVERAGE OF IN AND OUT TIMES 100

 PERCENT DISCREPANCY =           0.00     PERCENT DISCREPANCY =           0.00






 

        AG WELLS          PERIOD    7   STEP   5
 AG WELL      1   LAYER   1   ROW     6   COL     4   RATE    -3.74500    
 AG WELL      2   LAYER   1   ROW     6   COL     5   RATE    -3.74500    
 AG WELL      3   LAYER   1   ROW     7   COL     4   RATE    -3.74500    
 AG WELL      4   LAYER   1   ROW     7   COL     5   RATE    -3.74500    
 AG WELL      5   LAYER   1   ROW     8   COL     4   RATE    -3.74500    
 AG WELL      6   LAYER   1   ROW     8   COL     5   RATE    -3.74500    
 
 

        GW IRRIGATION     PERIOD    7   STEP   5
 AG WELL      1   ROW     6   COL     4   RATE     3.74500    
 AG WELL      2   ROW     6   COL     5   RATE     3.74500    
 AG WELL      3   ROW     7   COL     4   RATE     3.74500    
 AG WELL      4   ROW     7   COL     5   RATE     3.74500    
 AG WELL      5   ROW     8   COL     4   RATE     3.74500    
 AG WELL      6   ROW     8   COL     5   RATE     3.74500    
 
1
  VOLUMETRIC BUDGET FOR AGRICULTURAL FIELDS AT  END OF TIME STEP    5, STRESS PERIOD   7
  ------------------------------------------------------------------------------

     CUMULATIVE VOLUMES      L**3       RATES FOR THIS TIME STEP      L**3/T
     ------------------                 ------------------------

           IN:                                      IN:
           ---                                      ---
           AG WELLS      =    39281832.0000             AG WELLS      =          22.4700
      DIVERSION SEGMENTS =           0.0000        DIVERSION SEGMENTS =           0.0000
           GW IRRIGATION =           0.0000             GW IRRIGATION =           0.0000
           SW IRRIGATION =           0.0000             SW IRRIGATION =           0.0000
        SYSTEM LOSSES GW =           0.0000          SYSTEM LOSSES GW =           0.0000
        SYSTEM LOSSES SW =           0.0000          SYSTEM LOSSES SW =           0.0000

                TOTAL IN =    39281832.0000                  TOTAL IN =          22.4700

          OUT:                                     OUT:
          ----                                     ----
           AG WELLS      =           0.0000             AG WELLS      =           0.0000
      DIVERSION SEGMENTS =           0.0000        DIVERSION SEGMENTS =           0.0000
           GW IRRIGATION =    39281832.0000             GW IRRIGATION =          22.4700
           SW IRRIGATION =           0.0000             SW IRRIGATION =           0.0000
        SYSTEM LOSSES GW =           0.0000          SYSTEM LOSSES GW =           0.0000
        SYSTEM LOSSES SW =           0.0000          SYSTEM LOSSES SW =           0.0000

               TOTAL OUT =    39281832.0000                 TOTAL OUT =          22.4700

                IN - OUT =           0.0000                  IN - OUT =           0.0000

     PERCENT DISCREPANCY =           0.00         PERCENT DISCREPANCY =           0.00



1
  VOLUMETRIC BUDGET FOR ENTIRE MODEL AT END OF TIME STEP    5, STRESS PERIOD   7
  ------------------------------------------------------------------------------

     CUMULATIVE VOLUMES      L**3       RATES FOR THIS TIME STEP      L**3/T
     ------------------                 ------------------------

           IN:                                      IN:
           ---                                      ---
             STORAGE     =    46422216.0000               STORAGE     =          22.7606
       CONSTANT HEAD     =           0.0000         CONSTANT HEAD     =           0.0000
     HEAD DEP BOUNDS     =     3903409.5000       HEAD DEP BOUNDS     =           0.2855
      STREAM LEAKAGE     =   172600848.0000        STREAM LEAKAGE     =          13.5284
        UZF RECHARGE     =       73223.9531          UZF RECHARGE     =           0.0000
               GW ET     =           0.0000                 GW ET     =           0.0000
     SURFACE LEAKAGE     =           0.0000       SURFACE LEAKAGE     =           0.0000
           AG WELLS      =           0.0000             AG WELLS      =           0.0000

                TOTAL IN =   222999680.0000                  TOTAL IN =          36.5744

          OUT:                                     OUT:
          ----                                     ----
             STORAGE     =    37711844.0000               STORAGE     =           2.0611
       CONSTANT HEAD     =           0.0000         CONSTANT HEAD     =           0.0000
     HEAD DEP BOUNDS     =     4016781.0000       HEAD DEP BOUNDS     =           0.3001
      STREAM LEAKAGE     =   139079744.0000        STREAM LEAKAGE     =          10.0183
        UZF RECHARGE     =           0.0000          UZF RECHARGE     =           0.0000
               GW ET     =     2913524.0000                 GW ET     =           1.7249
     SURFACE LEAKAGE     =           0.0000       SURFACE LEAKAGE     =           0.0000
           AG WELLS      =    39281832.0000             AG WELLS      =          22.4700

               TOTAL OUT =   223003712.0000                 TOTAL OUT =          36.5744

                IN - OUT =       -4032.0000                  IN - OUT =       1.5259E-05

     PERCENT DISCREPANCY =          -0.00         PERCENT DISCREPANCY =           0.00






         TIME SUMMARY AT END OF TIME STEP    5 IN STRESS PERIOD    7
                    SECONDS     MINUTES      HOURS       DAYS        YEARS
                    -----------------------------------------------------------
   TIME STEP LENGTH  87667.      1461.1      24.352      1.0147     2.77799E-03
 STRESS PERIOD TIME 4.38333E+05  7305.6      121.76      5.0733     1.38899E-02
         TOTAL TIME 1.36747E+07 2.27912E+05  3798.5      158.27     0.43333    
1
 
 SOLVING FOR HEAD 
                                                   Max.-Head-Change                         Max.-Flux-Residual
  Residual-Control   Outer-Iter.   Inner-Iter.     Column Row Layer    Maximum-Head-Change  Column Row Layer    Maximum-Flux-Residual          L2-NORM 
          0                 1           2             5    6     1       0.1902931642E-01       5    8    1         0.1035832195E+01      0.2496472312E+01
          0                 2           2             4    7     1      -0.7079506115E-01       5    8    1        -0.3848557661E+01      0.9379046455E+01
          0                 3           2             4    7     1       0.4820365854E-02       5    6    1         0.2693514622E+00      0.6564226483E+00
          0                 4           2             4    7     1      -0.1918069955E-03       5    6    1        -0.1101490218E-01      0.2684501042E-01
          0                 5           1             4    7     1       0.2365063322E-05       5    6    1         0.1394844903E-03      0.3401653062E-03

    ------------------------------------------------
       NWT REQUIRED            5 OUTER ITERATIONS 
       AND A TOTAL OF          9 INNER ITERATIONS.
    ------------------------------------------------

 NO OUTPUT CONTROL FOR STRESS PERIOD    7   TIME STEP    6
 
 SOLVING FOR HEAD 
                                                   Max.-Head-Change                         Max.-Flux-Residual
  Residual-Control   Outer-Iter.   Inner-Iter.     Column Row Layer    Maximum-Head-Change  Column Row Layer    Maximum-Flux-Residual          L2-NORM 
          0                 1           2             5    6     1       0.2011981815E-01       5    8    1         0.1096015711E+01      0.2605503984E+01
          0                 2           2             4    7     1      -0.7084274149E-01       5    8    1        -0.3854576135E+01      0.9390313119E+01
          0                 3           2             4    7     1       0.4823612904E-02       5    6    1         0.2697705657E+00      0.6572158259E+00
          0                 4           2             4    7     1      -0.1919361972E-03       5    6    1        -0.1103225364E-01      0.2687775755E-01
          0                 5           1             4    7     1       0.2366656397E-05       5    6    1         0.1397186500E-03      0.3405540563E-03

    ------------------------------------------------
       NWT REQUIRED            5 OUTER ITERATIONS 
       AND A TOTAL OF          9 INNER ITERATIONS.
    ------------------------------------------------

 NO OUTPUT CONTROL FOR STRESS PERIOD    7   TIME STEP    7
 
 SOLVING FOR HEAD 
                                                   Max.-Head-Change                         Max.-Flux-Residual
  Residual-Control   Outer-Iter.   Inner-Iter.     Column Row Layer    Maximum-Head-Change  Column Row Layer    Maximum-Flux-Residual          L2-NORM 
          0                 1           2             5    6     1       0.2115855508E-01       5    8    1         0.1153181340E+01      0.2718581337E+01
          0                 2           2             4    7     1      -0.7089136958E-01       5    8    1        -0.3860292820E+01      0.9401247839E+01
          0                 3           2             4    7     1       0.4826924472E-02       5    8    1         0.2701698760E+00      0.6579857922E+00
          0                 4           2             4    7     1      -0.1920679668E-03       5    8    1        -0.1104877915E-01      0.2690959261E-01
          0                 5           1             4    7     1       0.2368280836E-05       5    6    1         0.1399412020E-03      0.3409526673E-03

    ------------------------------------------------
       NWT REQUIRED            5 OUTER ITERATIONS 
       AND A TOTAL OF          9 INNER ITERATIONS.
    ------------------------------------------------

 NO OUTPUT CONTROL FOR STRESS PERIOD    7   TIME STEP    8
 
 SOLVING FOR HEAD 
                                                   Max.-Head-Change                         Max.-Flux-Residual
  Residual-Control   Outer-Iter.   Inner-Iter.     Column Row Layer    Maximum-Head-Change  Column Row Layer    Maximum-Flux-Residual          L2-NORM 
          0                 1           2             5    6     1       0.2214829195E-01       5    8    1         0.1207504397E+01      0.2832469938E+01
          0                 2           2             4    7     1      -0.7094081592E-01       5    8    1        -0.3865725246E+01      0.9411857217E+01
          0                 3           2             4    7     1       0.4830291742E-02       5    8    1         0.2705520477E+00      0.6587329833E+00
          0                 4           2             4    7     1      -0.1922019532E-03       5    8    1        -0.1106459823E-01      0.2694052242E-01
          0                 5           1             4    7     1       0.2369933503E-05       5    6    1         0.1401527950E-03      0.3413487729E-03

    ------------------------------------------------
       NWT REQUIRED            5 OUTER ITERATIONS 
       AND A TOTAL OF          9 INNER ITERATIONS.
    ------------------------------------------------

 NO OUTPUT CONTROL FOR STRESS PERIOD    7   TIME STEP    9
 
 SOLVING FOR HEAD 
                                                   Max.-Head-Change                         Max.-Flux-Residual
  Residual-Control   Outer-Iter.   Inner-Iter.     Column Row Layer    Maximum-Head-Change  Column Row Layer    Maximum-Flux-Residual          L2-NORM 
          0                 1           2             5    6     1       0.2309218246E-01       5    8    1         0.1259193602E+01      0.2945282525E+01
          0                 2           2             4    7     1      -0.7099096058E-01       5    8    1        -0.3870894285E+01      0.9422153355E+01
          0                 3           2             4    7     1       0.4833706546E-02       5    8    1         0.2709156531E+00      0.6594579113E+00
          0                 4           2             4    7     1      -0.1923378305E-03       5    8    1        -0.1107964520E-01      0.2697053110E-01
          0                 5           1             4    7     1       0.2371608797E-05       5    6    1         0.1403541962E-03      0.3417378533E-03

    ------------------------------------------------
       NWT REQUIRED            5 OUTER ITERATIONS 
       AND A TOTAL OF          9 INNER ITERATIONS.
    ------------------------------------------------

 OUTPUT CONTROL FOR STRESS PERIOD    7   TIME STEP   10
    PRINT BUDGET
    SAVE BUDGET
 UBDSV1 SAVING "         STORAGE" ON UNIT 102 AT TIME STEP 10, STRESS PERIOD 7
 UBDSV2 SAVING "   CONSTANT HEAD" ON UNIT 102 AT TIME STEP 10, STRESS PERIOD 7
 UBDSV1 SAVING "FLOW RIGHT FACE " ON UNIT 102 AT TIME STEP 10, STRESS PERIOD 7
 UBDSV1 SAVING "FLOW FRONT FACE " ON UNIT 102 AT TIME STEP 10, STRESS PERIOD 7

  HEAD DEP BOUNDS   PERIOD    7   STEP    10
 BOUNDARY      1   LAYER   1   ROW    13   COL     1   RATE   -0.300044    
 BOUNDARY      2   LAYER   1   ROW    14   COL     9   RATE    0.285490    



 STREAM LISTING     PERIOD      7   STEP       10

 LAYER ROW COL. STREAM  RCH.  FLOW INTO     FLOW TO   FLOW OUT OF   OVRLND.     DIRECT     STREAM       STREAM     STREAM     STREAM   STREAMBED  STREAMBED
                SEG.NO.  NO.  STRM. RCH.    AQUIFER    STRM. RCH.    RUNOFF     PRECIP       ET          HEAD       DEPTH      WIDTH   CONDCTNC.   GRADIENT

   1    1    1     1     1    8.3000E+01  4.4019E-01   8.2560E+01  0.000E+00  0.000E+00  0.000E+00  1.09478E+03  1.734E+00  2.066E+01  9.299E-02  1.578E+00
   1    2    2     1     2    8.2560E+01  6.8286E-01   8.1877E+01  0.000E+00  0.000E+00  0.000E+00  1.08979E+03  1.731E+00  2.062E+01  1.443E-01  1.577E+00
   1    3    3     1     3    8.1877E+01  5.8349E-01   8.1294E+01  0.000E+00  0.000E+00  0.000E+00  1.08415E+03  1.729E+00  2.057E+01  1.234E-01  1.576E+00
   1    3    4     1     4    8.1294E+01  5.3822E-01   8.0756E+01  0.000E+00  0.000E+00  0.000E+00  1.07913E+03  1.726E+00  2.052E+01  1.139E-01  1.575E+00
   1    4    5     2     1    7.8756E+01  4.2120E-01   7.8334E+01  0.000E+00  0.000E+00  0.000E+00  1.07433E+03  2.400E+00  1.200E+01  7.800E-02  1.800E+00
   1    5    6     2     2    7.8334E+01  3.2359E-01   7.8011E+01  0.000E+00  0.000E+00  0.000E+00  1.06890E+03  2.393E+00  1.200E+01  6.000E-02  1.798E+00
   1    6    6     2     3    7.8011E+01  3.2323E-01   7.7688E+01  0.000E+00  0.000E+00  0.000E+00  1.06418E+03  2.387E+00  1.200E+01  6.000E-02  1.796E+00
   1    7    6     2     4    7.7688E+01  3.2288E-01   7.7365E+01  0.000E+00  0.000E+00  0.000E+00  1.05946E+03  2.381E+00  1.200E+01  6.000E-02  1.794E+00
   1    8    6     2     5    7.7365E+01  3.2252E-01   7.7042E+01  0.000E+00  0.000E+00  0.000E+00  1.05473E+03  2.375E+00  1.200E+01  6.000E-02  1.792E+00
   1    3    5     3     1    2.0000E+00  2.8252E-01   1.7175E+00  0.000E+00  0.000E+00  0.000E+00  1.07555E+03  1.909E+00  9.636E+00  7.227E-02  1.955E+00
   1    3    6     3     2    1.7175E+00  2.4905E-01   1.4684E+00  0.000E+00  0.000E+00  0.000E+00  1.07264E+03  1.727E+00  8.909E+00  6.682E-02  1.864E+00
   1    3    7     3     3    1.4684E+00  1.9718E-01   1.2712E+00  0.000E+00  0.000E+00  0.000E+00  1.06987E+03  1.555E+00  8.218E+00  5.547E-02  1.777E+00
   1    4    8     3     4    1.2712E+00  2.2567E-01   1.0456E+00  0.000E+00  0.000E+00  0.000E+00  1.06682E+03  1.364E+00  7.455E+00  6.709E-02  1.682E+00
   1    5    8     3     5    1.0456E+00  1.5790E-01   8.8768E-01  0.000E+00  0.000E+00  0.000E+00  1.06362E+03  1.164E+00  6.655E+00  4.991E-02  1.582E+00
   1    6    8     3     6    8.8768E-01  5.5980E-02   8.3170E-01  0.000E+00  0.000E+00  0.000E+00  1.06158E+03  1.036E+00  6.145E+00  1.844E-02  1.518E+00
   1    5   10     4     1    1.0000E+01  9.0919E-02   9.9091E+00  0.000E+00  0.000E+00  0.000E+00  1.07836E+03  6.368E-01  1.000E+01  2.500E-02  1.212E+00
   1    5    9     4     2    9.9091E+00  1.8158E-01   9.7275E+00  0.000E+00  0.000E+00  0.000E+00  1.07154E+03  6.315E-01  1.000E+01  5.000E-02  1.211E+00
   1    6    8     4     3    9.7275E+00  1.2689E-01   9.6006E+00  0.000E+00  0.000E+00  0.000E+00  1.06381E+03  6.256E-01  1.000E+01  3.500E-02  1.209E+00
   1    6    8     5     1    1.0432E+01  2.2686E-01   1.0205E+01  0.000E+00  0.000E+00  0.000E+00  1.05868E+03  6.790E-01  1.542E+01  6.166E-02  1.226E+00
   1    7    7     5     2    1.0205E+01  2.7894E-01   9.9265E+00  0.000E+00  0.000E+00  0.000E+00  1.05417E+03  6.732E-01  1.519E+01  7.594E-02  1.224E+00
   1    8    7     5     3    9.9265E+00  1.9221E-01   9.7343E+00  0.000E+00  0.000E+00  0.000E+00  1.04992E+03  6.676E-01  1.497E+01  5.241E-02  1.223E+00
   1    8    6     5     4    9.7343E+00  1.3577E-01   9.5985E+00  0.000E+00  0.000E+00  0.000E+00  1.04691E+03  6.637E-01  1.482E+01  3.706E-02  1.221E+00
   1    9    6     6     1    8.6641E+01  3.3426E-01   8.6306E+01  0.000E+00  0.000E+00  0.000E+00  1.04530E+03  2.571E+00  1.200E+01  6.000E-02  1.857E+00
   1   10    7     6     2    8.6306E+01  3.3390E-01   8.5973E+01  0.000E+00  0.000E+00  0.000E+00  1.04075E+03  2.565E+00  1.200E+01  6.000E-02  1.855E+00
   1   11    7     6     3    8.5973E+01  3.3354E-01   8.5639E+01  0.000E+00  0.000E+00  0.000E+00  1.03620E+03  2.559E+00  1.200E+01  6.000E-02  1.853E+00
   1   12    7     6     4    8.5639E+01  3.3319E-01   8.5306E+01  0.000E+00  0.000E+00  0.000E+00  1.03164E+03  2.553E+00  1.200E+01  6.000E-02  1.851E+00
   1   13    7     6     5    8.5306E+01  2.9753E-02   8.5276E+01  0.000E+00  0.000E+00  0.000E+00  1.02846E+03  2.550E+00  1.200E+01  2.400E-02  4.132E-01
   1   14    9     7     1    1.5000E+02  1.3319E+00   1.4867E+02  0.000E+00  0.000E+00  0.000E+00  1.03987E+03  2.288E+00  5.529E+01  5.593E-01  7.938E-01
   1   13    8     7     2    1.4867E+02  1.8055E+00   1.4686E+02  0.000E+00  0.000E+00  0.000E+00  1.03478E+03  2.279E+00  5.526E+01  6.148E-01  9.789E-01
   1   13    7     7     3    1.4686E+02  1.3800E+00   1.4548E+02  0.000E+00  0.000E+00  0.000E+00  1.02969E+03  2.271E+00  5.522E+01  5.585E-01  8.237E-01
   1   13    6     8     1    2.3076E+02  1.0581E+00   2.2970E+02  0.000E+00  0.000E+00  0.000E+00  1.02518E+03  3.308E+00  4.796E+01  4.888E-01  7.216E-01
   1   13    5     8     2    2.2970E+02  2.2293E-01   2.2948E+02  0.000E+00  0.000E+00  0.000E+00  1.01893E+03  3.304E+00  4.791E+01  4.882E-01  1.522E-01
   1   13    4     8     3    2.2948E+02 -2.0110E+00   2.3149E+02  0.000E+00  0.000E+00  0.000E+00  1.01268E+03  3.309E+00  4.798E+01  4.890E+00 -1.371E-01
   1   13    3     8     4    2.3149E+02 -3.1903E+00   2.3468E+02  0.000E+00  0.000E+00  0.000E+00  1.00645E+03  3.323E+00  4.819E+01  4.910E+00 -2.166E-01
   1   13    2     8     5    2.3468E+02 -2.5909E+00   2.3727E+02  0.000E+00  0.000E+00  0.000E+00  1.00021E+03  3.339E+00  4.841E+01  4.933E+00 -1.751E-01
   1   13    1     8     6    2.3727E+02 -1.9910E+00   2.3926E+02  0.000E+00  0.000E+00  0.000E+00  9.95226E+02  3.351E+00  4.858E+01  2.971E+00 -2.234E-01



 UBDSV3 SAVING "           GW ET" ON UNIT  61 AT TIME STEP 10, STRESS PERIOD 7
 UBDSV3 SAVING "    UZF RECHARGE" ON UNIT  61 AT TIME STEP 10, STRESS PERIOD 7
 UBDSV3 SAVING " SURFACE LEAKAGE" ON UNIT  61 AT TIME STEP 10, STRESS PERIOD 7
 UBDSV3 SAVING "       HORT+DUNN" ON UNIT  61 AT TIME STEP 10, STRESS PERIOD 7
 UBDSV3 SAVING "  STORAGE CHANGE" ON UNIT  61 AT TIME STEP 10, STRESS PERIOD 7


UNSATURATED ZONE PACKAGE VOLUMETRIC BUDGET FOR  TIME STEP    10 STRESS PERIOD    7
  ------------------------------------------------------------------------------



     CUMULATIVE VOLUMES      L**3       RATES FOR THIS TIME STEP      L**3/T
     ------------------                 ------------------------

           IN:                                      IN:
           ---                                      ---
        INFILTRATION =    61092005.8533          INFILTRATION =          23.3175

          OUT:                                     OUT:
          ----                                     ----
              UZF ET =    61015414.4554                UZF ET =          23.3175
        UZF RECHARGE =       73224.0000          UZF RECHARGE =       0.0000E+00

            IN - OUT =        3367.3979              IN - OUT =       0.0000E+00

          STORAGE:                                 STORAGE:
          --------                                 --------
      STORAGE CHANGE =        3367.4603        STORAGE CHANGE =       3.3446E-12

 PERCENT DISCREPANCY IS DIFFERENCE BETWEEN IN-OUT MINUS CHANGE IN STORAGE
 DIVIDED BY THE AVERAGE OF IN AND OUT TIMES 100

 PERCENT DISCREPANCY =           0.00     PERCENT DISCREPANCY =           0.00






 

        AG WELLS          PERIOD    7   STEP  10
 AG WELL      1   LAYER   1   ROW     6   COL     4   RATE    -3.74500    
 AG WELL      2   LAYER   1   ROW     6   COL     5   RATE    -3.74500    
 AG WELL      3   LAYER   1   ROW     7   COL     4   RATE    -3.74500    
 AG WELL      4   LAYER   1   ROW     7   COL     5   RATE    -3.74500    
 AG WELL      5   LAYER   1   ROW     8   COL     4   RATE    -3.74500    
 AG WELL      6   LAYER   1   ROW     8   COL     5   RATE    -3.74500    
 
 

        GW IRRIGATION     PERIOD    7   STEP  10
 AG WELL      1   ROW     6   COL     4   RATE     3.74500    
 AG WELL      2   ROW     6   COL     5   RATE     3.74500    
 AG WELL      3   ROW     7   COL     4   RATE     3.74500    
 AG WELL      4   ROW     7   COL     5   RATE     3.74500    
 AG WELL      5   ROW     8   COL     4   RATE     3.74500    
 AG WELL      6   ROW     8   COL     5   RATE     3.74500    
 
1
  VOLUMETRIC BUDGET FOR AGRICULTURAL FIELDS AT  END OF TIME STEP   10, STRESS PERIOD   7
  ------------------------------------------------------------------------------

     CUMULATIVE VOLUMES      L**3       RATES FOR THIS TIME STEP      L**3/T
     ------------------                 ------------------------

           IN:                                      IN:
           ---                                      ---
           AG WELLS      =    49131192.0000             AG WELLS      =          22.4700
      DIVERSION SEGMENTS =           0.0000        DIVERSION SEGMENTS =           0.0000
           GW IRRIGATION =           0.0000             GW IRRIGATION =           0.0000
           SW IRRIGATION =           0.0000             SW IRRIGATION =           0.0000
        SYSTEM LOSSES GW =           0.0000          SYSTEM LOSSES GW =           0.0000
        SYSTEM LOSSES SW =           0.0000          SYSTEM LOSSES SW =           0.0000

                TOTAL IN =    49131192.0000                  TOTAL IN =          22.4700

          OUT:                                     OUT:
          ----                                     ----
           AG WELLS      =           0.0000             AG WELLS      =           0.0000
      DIVERSION SEGMENTS =           0.0000        DIVERSION SEGMENTS =           0.0000
           GW IRRIGATION =    49131192.0000             GW IRRIGATION =          22.4700
           SW IRRIGATION =           0.0000             SW IRRIGATION =           0.0000
        SYSTEM LOSSES GW =           0.0000          SYSTEM LOSSES GW =           0.0000
        SYSTEM LOSSES SW =           0.0000          SYSTEM LOSSES SW =           0.0000

               TOTAL OUT =    49131192.0000                 TOTAL OUT =          22.4700

                IN - OUT =           0.0000                  IN - OUT =           0.0000

     PERCENT DISCREPANCY =           0.00         PERCENT DISCREPANCY =           0.00



1
  VOLUMETRIC BUDGET FOR ENTIRE MODEL AT END OF TIME STEP   10, STRESS PERIOD   7
  ------------------------------------------------------------------------------

     CUMULATIVE VOLUMES      L**3       RATES FOR THIS TIME STEP      L**3/T
     ------------------                 ------------------------

           IN:                                      IN:
           ---                                      ---
             STORAGE     =    56217044.0000               STORAGE     =          22.1462
       CONSTANT HEAD     =           0.0000         CONSTANT HEAD     =           0.0000
     HEAD DEP BOUNDS     =     4028549.5000       HEAD DEP BOUNDS     =           0.2855
      STREAM LEAKAGE     =   178529248.0000        STREAM LEAKAGE     =          13.5226
        UZF RECHARGE     =       73223.9531          UZF RECHARGE     =           0.0000
               GW ET     =           0.0000                 GW ET     =           0.0000
     SURFACE LEAKAGE     =           0.0000       SURFACE LEAKAGE     =           0.0000
           AG WELLS      =           0.0000             AG WELLS      =           0.0000

                TOTAL IN =   238848064.0000                  TOTAL IN =          35.9543

          OUT:                                     OUT:
          ----                                     ----
             STORAGE     =    38583928.0000               STORAGE     =           1.9533
       CONSTANT HEAD     =           0.0000         CONSTANT HEAD     =           0.0000
     HEAD DEP BOUNDS     =     4148317.7500       HEAD DEP BOUNDS     =           0.3000
      STREAM LEAKAGE     =   143402144.0000        STREAM LEAKAGE     =           9.7833
        UZF RECHARGE     =           0.0000          UZF RECHARGE     =           0.0000
               GW ET     =     3586483.2500                 GW ET     =           1.4476
     SURFACE LEAKAGE     =           0.0000       SURFACE LEAKAGE     =           0.0000
           AG WELLS      =    49131192.0000             AG WELLS      =          22.4700

               TOTAL OUT =   238852064.0000                 TOTAL OUT =          35.9543

                IN - OUT =       -4000.0000                  IN - OUT =       1.9073E-05

     PERCENT DISCREPANCY =          -0.00         PERCENT DISCREPANCY =           0.00






         TIME SUMMARY AT END OF TIME STEP   10 IN STRESS PERIOD    7
                    SECONDS     MINUTES      HOURS       DAYS        YEARS
                    -----------------------------------------------------------
   TIME STEP LENGTH  87667.      1461.1      24.352      1.0147     2.77799E-03
 STRESS PERIOD TIME 8.76667E+05  14611.      243.52      10.147     2.77799E-02
         TOTAL TIME 1.41131E+07 2.35218E+05  3920.3      163.35     0.44722    
1
 
 SOLVING FOR HEAD 
                                                   Max.-Head-Change                         Max.-Flux-Residual
  Residual-Control   Outer-Iter.   Inner-Iter.     Column Row Layer    Maximum-Head-Change  Column Row Layer    Maximum-Flux-Residual          L2-NORM 
          0                 1           2             5    6     1       0.2399344003E-01       5    8    1         0.1308410454E+01      0.3055909523E+01
          0                 2           2             4    7     1      -0.7104166361E-01       5    8    1        -0.3875816086E+01      0.9432144824E+01
          0                 3           2             4    7     1       0.4837159358E-02       5    8    1         0.2712618332E+00      0.6601608942E+00
          0                 4           2             4    7     1      -0.1924752203E-03       5    8    1        -0.1109396773E-01      0.2699959354E-01
          0                 5           1             4    7     1       0.2373302909E-05       5    8    1         0.1405465928E-03      0.3421161839E-03

    ------------------------------------------------
       NWT REQUIRED            5 OUTER ITERATIONS 
       AND A TOTAL OF          9 INNER ITERATIONS.
    ------------------------------------------------

 NO OUTPUT CONTROL FOR STRESS PERIOD    7   TIME STEP   11
 
 SOLVING FOR HEAD 
                                                   Max.-Head-Change                         Max.-Flux-Residual
  Residual-Control   Outer-Iter.   Inner-Iter.     Column Row Layer    Maximum-Head-Change  Column Row Layer    Maximum-Flux-Residual          L2-NORM 
          0                 1           2             5    6     1       0.2485416484E-01       5    8    1         0.1355303189E+01      0.3163730777E+01
          0                 2           2             4    7     1      -0.7109284861E-01       5    8    1        -0.3880505473E+01      0.9441843497E+01
          0                 3           2             4    7     1       0.4840644976E-02       5    8    1         0.2715916325E+00      0.6608426880E+00
          0                 4           2             4    7     1      -0.1926139161E-03       5    8    1        -0.1110760924E-01      0.2702773485E-01
          0                 5           1             4    7     1       0.2375012703E-05       5    8    1         0.1407298209E-03      0.3424811324E-03

    ------------------------------------------------
       NWT REQUIRED            5 OUTER ITERATIONS 
       AND A TOTAL OF          9 INNER ITERATIONS.
    ------------------------------------------------

 NO OUTPUT CONTROL FOR STRESS PERIOD    7   TIME STEP   12
 
 SOLVING FOR HEAD 
                                                   Max.-Head-Change                         Max.-Flux-Residual
  Residual-Control   Outer-Iter.   Inner-Iter.     Column Row Layer    Maximum-Head-Change  Column Row Layer    Maximum-Flux-Residual          L2-NORM 
          0                 1           2             5    6     1       0.2567717782E-01       5    8    1         0.1400041093E+01      0.3268455447E+01
          0                 2           2             4    7     1      -0.7114444383E-01       5    8    1        -0.3884979374E+01      0.9451261200E+01
          0                 3           2             4    7     1       0.4844158512E-02       5    8    1         0.2719062448E+00      0.6615044107E+00
          0                 4           2             4    7     1      -0.1927537225E-03       5    8    1        -0.1112061943E-01      0.2705502576E-01
          0                 5           1             4    7     1       0.2376737060E-05       5    8    1         0.1409043673E-03      0.3428370966E-03

    ------------------------------------------------
       NWT REQUIRED            5 OUTER ITERATIONS 
       AND A TOTAL OF          9 INNER ITERATIONS.
    ------------------------------------------------

 NO OUTPUT CONTROL FOR STRESS PERIOD    7   TIME STEP   13
 
 SOLVING FOR HEAD 
                                                   Max.-Head-Change                         Max.-Flux-Residual
  Residual-Control   Outer-Iter.   Inner-Iter.     Column Row Layer    Maximum-Head-Change  Column Row Layer    Maximum-Flux-Residual          L2-NORM 
          0                 1           2             5    6     1       0.2646422664E-01       5    8    1         0.1442748632E+01      0.3369948938E+01
          0                 2           2             4    7     1      -0.7119630541E-01       5    8    1        -0.3889250236E+01      0.9460407932E+01
          0                 3           2             4    7     1       0.4847690175E-02       5    8    1         0.2722065485E+00      0.6621467310E+00
          0                 4           2             4    7     1      -0.1928942504E-03       5    8    1        -0.1113303494E-01      0.2708148641E-01
          0                 5           1             4    7     1       0.2378469705E-05       5    8    1         0.1410707421E-03      0.3431830597E-03

    ------------------------------------------------
       NWT REQUIRED            5 OUTER ITERATIONS 
       AND A TOTAL OF          9 INNER ITERATIONS.
    ------------------------------------------------

 NO OUTPUT CONTROL FOR STRESS PERIOD    7   TIME STEP   14
 
 SOLVING FOR HEAD 
                                                   Max.-Head-Change                         Max.-Flux-Residual
  Residual-Control   Outer-Iter.   Inner-Iter.     Column Row Layer    Maximum-Head-Change  Column Row Layer    Maximum-Flux-Residual          L2-NORM 
          0                 1           2             5    6     1       0.2721810430E-01       5    8    1         0.1483557037E+01      0.3468216932E+01
          0                 2           2             4    7     1      -0.7124837750E-01       5    8    1        -0.3893331181E+01      0.9469295624E+01
          0                 3           2             4    7     1       0.4851236159E-02       5    8    1         0.2724932855E+00      0.6627706990E+00
          0                 4           2             4    7     1      -0.1930353481E-03       5    8    1        -0.1114486874E-01      0.2710717788E-01
          0                 5           1             4    7     1       0.2380209520E-05       5    6    1         0.1412287882E-03      0.3435173959E-03

    ------------------------------------------------
       NWT REQUIRED            5 OUTER ITERATIONS 
       AND A TOTAL OF          9 INNER ITERATIONS.
    ------------------------------------------------

 OUTPUT CONTROL FOR STRESS PERIOD    7   TIME STEP   15
    PRINT BUDGET
    SAVE BUDGET
 UBDSV1 SAVING "         STORAGE" ON UNIT 102 AT TIME STEP 15, STRESS PERIOD 7
 UBDSV2 SAVING "   CONSTANT HEAD" ON UNIT 102 AT TIME STEP 15, STRESS PERIOD 7
 UBDSV1 SAVING "FLOW RIGHT FACE " ON UNIT 102 AT TIME STEP 15, STRESS PERIOD 7
 UBDSV1 SAVING "FLOW FRONT FACE " ON UNIT 102 AT TIME STEP 15, STRESS PERIOD 7

  HEAD DEP BOUNDS   PERIOD    7   STEP    15
 BOUNDARY      1   LAYER   1   ROW    13   COL     1   RATE   -0.299953    
 BOUNDARY      2   LAYER   1   ROW    14   COL     9   RATE    0.285489    



 STREAM LISTING     PERIOD      7   STEP       15

 LAYER ROW COL. STREAM  RCH.  FLOW INTO     FLOW TO   FLOW OUT OF   OVRLND.     DIRECT     STREAM       STREAM     STREAM     STREAM   STREAMBED  STREAMBED
                SEG.NO.  NO.  STRM. RCH.    AQUIFER    STRM. RCH.    RUNOFF     PRECIP       ET          HEAD       DEPTH      WIDTH   CONDCTNC.   GRADIENT

   1    1    1     1     1    8.3000E+01  4.4019E-01   8.2560E+01  0.000E+00  0.000E+00  0.000E+00  1.09478E+03  1.734E+00  2.066E+01  9.299E-02  1.578E+00
   1    2    2     1     2    8.2560E+01  6.8286E-01   8.1877E+01  0.000E+00  0.000E+00  0.000E+00  1.08979E+03  1.731E+00  2.062E+01  1.443E-01  1.577E+00
   1    3    3     1     3    8.1877E+01  5.8349E-01   8.1294E+01  0.000E+00  0.000E+00  0.000E+00  1.08415E+03  1.729E+00  2.057E+01  1.234E-01  1.576E+00
   1    3    4     1     4    8.1294E+01  5.3822E-01   8.0756E+01  0.000E+00  0.000E+00  0.000E+00  1.07913E+03  1.726E+00  2.052E+01  1.139E-01  1.575E+00
   1    4    5     2     1    7.8756E+01  4.2120E-01   7.8334E+01  0.000E+00  0.000E+00  0.000E+00  1.07433E+03  2.400E+00  1.200E+01  7.800E-02  1.800E+00
   1    5    6     2     2    7.8334E+01  3.2359E-01   7.8011E+01  0.000E+00  0.000E+00  0.000E+00  1.06890E+03  2.393E+00  1.200E+01  6.000E-02  1.798E+00
   1    6    6     2     3    7.8011E+01  3.2323E-01   7.7688E+01  0.000E+00  0.000E+00  0.000E+00  1.06418E+03  2.387E+00  1.200E+01  6.000E-02  1.796E+00
   1    7    6     2     4    7.7688E+01  3.2288E-01   7.7365E+01  0.000E+00  0.000E+00  0.000E+00  1.05946E+03  2.381E+00  1.200E+01  6.000E-02  1.794E+00
   1    8    6     2     5    7.7365E+01  3.2252E-01   7.7042E+01  0.000E+00  0.000E+00  0.000E+00  1.05473E+03  2.375E+00  1.200E+01  6.000E-02  1.792E+00
   1    3    5     3     1    2.0000E+00  2.8252E-01   1.7175E+00  0.000E+00  0.000E+00  0.000E+00  1.07555E+03  1.909E+00  9.636E+00  7.227E-02  1.955E+00
   1    3    6     3     2    1.7175E+00  2.4905E-01   1.4684E+00  0.000E+00  0.000E+00  0.000E+00  1.07264E+03  1.727E+00  8.909E+00  6.682E-02  1.864E+00
   1    3    7     3     3    1.4684E+00  1.9718E-01   1.2712E+00  0.000E+00  0.000E+00  0.000E+00  1.06987E+03  1.555E+00  8.218E+00  5.547E-02  1.777E+00
   1    4    8     3     4    1.2712E+00  2.2567E-01   1.0456E+00  0.000E+00  0.000E+00  0.000E+00  1.06682E+03  1.364E+00  7.455E+00  6.709E-02  1.682E+00
   1    5    8     3     5    1.0456E+00  1.5790E-01   8.8768E-01  0.000E+00  0.000E+00  0.000E+00  1.06362E+03  1.164E+00  6.655E+00  4.991E-02  1.582E+00
   1    6    8     3     6    8.8768E-01  5.5980E-02   8.3170E-01  0.000E+00  0.000E+00  0.000E+00  1.06158E+03  1.036E+00  6.145E+00  1.844E-02  1.518E+00
   1    5   10     4     1    1.0000E+01  9.0919E-02   9.9091E+00  0.000E+00  0.000E+00  0.000E+00  1.07836E+03  6.368E-01  1.000E+01  2.500E-02  1.212E+00
   1    5    9     4     2    9.9091E+00  1.8158E-01   9.7275E+00  0.000E+00  0.000E+00  0.000E+00  1.07154E+03  6.315E-01  1.000E+01  5.000E-02  1.211E+00
   1    6    8     4     3    9.7275E+00  1.2689E-01   9.6006E+00  0.000E+00  0.000E+00  0.000E+00  1.06381E+03  6.256E-01  1.000E+01  3.500E-02  1.209E+00
   1    6    8     5     1    1.0432E+01  2.2686E-01   1.0205E+01  0.000E+00  0.000E+00  0.000E+00  1.05868E+03  6.790E-01  1.542E+01  6.166E-02  1.226E+00
   1    7    7     5     2    1.0205E+01  2.7894E-01   9.9265E+00  0.000E+00  0.000E+00  0.000E+00  1.05417E+03  6.732E-01  1.519E+01  7.594E-02  1.224E+00
   1    8    7     5     3    9.9265E+00  1.9221E-01   9.7343E+00  0.000E+00  0.000E+00  0.000E+00  1.04992E+03  6.676E-01  1.497E+01  5.241E-02  1.223E+00
   1    8    6     5     4    9.7343E+00  1.3577E-01   9.5985E+00  0.000E+00  0.000E+00  0.000E+00  1.04691E+03  6.637E-01  1.482E+01  3.706E-02  1.221E+00
   1    9    6     6     1    8.6641E+01  3.3426E-01   8.6306E+01  0.000E+00  0.000E+00  0.000E+00  1.04530E+03  2.571E+00  1.200E+01  6.000E-02  1.857E+00
   1   10    7     6     2    8.6306E+01  3.3390E-01   8.5973E+01  0.000E+00  0.000E+00  0.000E+00  1.04075E+03  2.565E+00  1.200E+01  6.000E-02  1.855E+00
   1   11    7     6     3    8.5973E+01  3.3354E-01   8.5639E+01  0.000E+00  0.000E+00  0.000E+00  1.03620E+03  2.559E+00  1.200E+01  6.000E-02  1.853E+00
   1   12    7     6     4    8.5639E+01  3.3319E-01   8.5306E+01  0.000E+00  0.000E+00  0.000E+00  1.03164E+03  2.553E+00  1.200E+01  6.000E-02  1.851E+00
   1   13    7     6     5    8.5306E+01  2.9667E-02   8.5276E+01  0.000E+00  0.000E+00  0.000E+00  1.02846E+03  2.550E+00  1.200E+01  2.400E-02  4.120E-01
   1   14    9     7     1    1.5000E+02  1.3319E+00   1.4867E+02  0.000E+00  0.000E+00  0.000E+00  1.03987E+03  2.288E+00  5.529E+01  5.593E-01  7.938E-01
   1   13    8     7     2    1.4867E+02  1.8047E+00   1.4686E+02  0.000E+00  0.000E+00  0.000E+00  1.03478E+03  2.279E+00  5.526E+01  6.148E-01  9.785E-01
   1   13    7     7     3    1.4686E+02  1.3780E+00   1.4549E+02  0.000E+00  0.000E+00  0.000E+00  1.02969E+03  2.271E+00  5.522E+01  5.585E-01  8.225E-01
   1   13    6     8     1    2.3076E+02  1.0561E+00   2.2971E+02  0.000E+00  0.000E+00  0.000E+00  1.02518E+03  3.308E+00  4.796E+01  4.888E-01  7.203E-01
   1   13    5     8     2    2.2971E+02  2.2234E-01   2.2948E+02  0.000E+00  0.000E+00  0.000E+00  1.01893E+03  3.304E+00  4.791E+01  4.883E-01  1.518E-01
   1   13    4     8     3    2.2948E+02 -1.9821E+00   2.3147E+02  0.000E+00  0.000E+00  0.000E+00  1.01268E+03  3.309E+00  4.798E+01  4.890E+00 -1.351E-01
   1   13    3     8     4    2.3147E+02 -3.1580E+00   2.3462E+02  0.000E+00  0.000E+00  0.000E+00  1.00645E+03  3.323E+00  4.818E+01  4.910E+00 -2.144E-01
   1   13    2     8     5    2.3462E+02 -2.5558E+00   2.3718E+02  0.000E+00  0.000E+00  0.000E+00  1.00021E+03  3.338E+00  4.840E+01  4.932E+00 -1.727E-01
   1   13    1     8     6    2.3718E+02 -1.9851E+00   2.3916E+02  0.000E+00  0.000E+00  0.000E+00  9.95225E+02  3.350E+00  4.858E+01  2.970E+00 -2.228E-01



 UBDSV3 SAVING "           GW ET" ON UNIT  61 AT TIME STEP 15, STRESS PERIOD 7
 UBDSV3 SAVING "    UZF RECHARGE" ON UNIT  61 AT TIME STEP 15, STRESS PERIOD 7
 UBDSV3 SAVING " SURFACE LEAKAGE" ON UNIT  61 AT TIME STEP 15, STRESS PERIOD 7
 UBDSV3 SAVING "       HORT+DUNN" ON UNIT  61 AT TIME STEP 15, STRESS PERIOD 7
 UBDSV3 SAVING "  STORAGE CHANGE" ON UNIT  61 AT TIME STEP 15, STRESS PERIOD 7


UNSATURATED ZONE PACKAGE VOLUMETRIC BUDGET FOR  TIME STEP    15 STRESS PERIOD    7
  ------------------------------------------------------------------------------



     CUMULATIVE VOLUMES      L**3       RATES FOR THIS TIME STEP      L**3/T
     ------------------                 ------------------------

           IN:                                      IN:
           ---                                      ---
        INFILTRATION =    71312844.2702          INFILTRATION =          23.3175

          OUT:                                     OUT:
          ----                                     ----
              UZF ET =    71236252.8723                UZF ET =          23.3175
        UZF RECHARGE =       73224.0000          UZF RECHARGE =       0.0000E+00

            IN - OUT =        3367.3979              IN - OUT =       0.0000E+00

          STORAGE:                                 STORAGE:
          --------                                 --------
      STORAGE CHANGE =        3367.4603        STORAGE CHANGE =       3.3446E-12

 PERCENT DISCREPANCY IS DIFFERENCE BETWEEN IN-OUT MINUS CHANGE IN STORAGE
 DIVIDED BY THE AVERAGE OF IN AND OUT TIMES 100

 PERCENT DISCREPANCY =           0.00     PERCENT DISCREPANCY =           0.00






 

        AG WELLS          PERIOD    7   STEP  15
 AG WELL      1   LAYER   1   ROW     6   COL     4   RATE    -3.74500    
 AG WELL      2   LAYER   1   ROW     6   COL     5   RATE    -3.74500    
 AG WELL      3   LAYER   1   ROW     7   COL     4   RATE    -3.74500    
 AG WELL      4   LAYER   1   ROW     7   COL     5   RATE    -3.74500    
 AG WELL      5   LAYER   1   ROW     8   COL     4   RATE    -3.74500    
 AG WELL      6   LAYER   1   ROW     8   COL     5   RATE    -3.74500    
 
 

        GW IRRIGATION     PERIOD    7   STEP  15
 AG WELL      1   ROW     6   COL     4   RATE     3.74500    
 AG WELL      2   ROW     6   COL     5   RATE     3.74500    
 AG WELL      3   ROW     7   COL     4   RATE     3.74500    
 AG WELL      4   ROW     7   COL     5   RATE     3.74500    
 AG WELL      5   ROW     8   COL     4   RATE     3.74500    
 AG WELL      6   ROW     8   COL     5   RATE     3.74500    
 
1
  VOLUMETRIC BUDGET FOR AGRICULTURAL FIELDS AT  END OF TIME STEP   15, STRESS PERIOD   7
  ------------------------------------------------------------------------------

     CUMULATIVE VOLUMES      L**3       RATES FOR THIS TIME STEP      L**3/T
     ------------------                 ------------------------

           IN:                                      IN:
           ---                                      ---
           AG WELLS      =    58980552.0000             AG WELLS      =          22.4700
      DIVERSION SEGMENTS =           0.0000        DIVERSION SEGMENTS =           0.0000
           GW IRRIGATION =           0.0000             GW IRRIGATION =           0.0000
           SW IRRIGATION =           0.0000             SW IRRIGATION =           0.0000
        SYSTEM LOSSES GW =           0.0000          SYSTEM LOSSES GW =           0.0000
        SYSTEM LOSSES SW =           0.0000          SYSTEM LOSSES SW =           0.0000

                TOTAL IN =    58980552.0000                  TOTAL IN =          22.4700

          OUT:                                     OUT:
          ----                                     ----
           AG WELLS      =           0.0000             AG WELLS      =           0.0000
      DIVERSION SEGMENTS =           0.0000        DIVERSION SEGMENTS =           0.0000
           GW IRRIGATION =    58980552.0000             GW IRRIGATION =          22.4700
           SW IRRIGATION =           0.0000             SW IRRIGATION =           0.0000
        SYSTEM LOSSES GW =           0.0000          SYSTEM LOSSES GW =           0.0000
        SYSTEM LOSSES SW =           0.0000          SYSTEM LOSSES SW =           0.0000

               TOTAL OUT =    58980552.0000                 TOTAL OUT =          22.4700

                IN - OUT =           0.0000                  IN - OUT =           0.0000

     PERCENT DISCREPANCY =           0.00         PERCENT DISCREPANCY =           0.00



1
  VOLUMETRIC BUDGET FOR ENTIRE MODEL AT END OF TIME STEP   15, STRESS PERIOD   7
  ------------------------------------------------------------------------------

     CUMULATIVE VOLUMES      L**3       RATES FOR THIS TIME STEP      L**3/T
     ------------------                 ------------------------

           IN:                                      IN:
           ---                                      ---
             STORAGE     =    65848636.0000               STORAGE     =          21.8829
       CONSTANT HEAD     =           0.0000         CONSTANT HEAD     =           0.0000
     HEAD DEP BOUNDS     =     4153689.5000       HEAD DEP BOUNDS     =           0.2855
      STREAM LEAKAGE     =   184455232.0000        STREAM LEAKAGE     =          13.5172
        UZF RECHARGE     =       73223.9531          UZF RECHARGE     =           0.0000
               GW ET     =           0.0000                 GW ET     =           0.0000
     SURFACE LEAKAGE     =           0.0000       SURFACE LEAKAGE     =           0.0000
           AG WELLS      =           0.0000             AG WELLS      =           0.0000

                TOTAL IN =   254530784.0000                  TOTAL IN =          35.6856

          OUT:                                     OUT:
          ----                                     ----
             STORAGE     =    39421108.0000               STORAGE     =           1.8823
       CONSTANT HEAD     =           0.0000         CONSTANT HEAD     =           0.0000
     HEAD DEP BOUNDS     =     4279813.0000       HEAD DEP BOUNDS     =           0.3000
      STREAM LEAKAGE     =   147660816.0000        STREAM LEAKAGE     =           9.6810
        UZF RECHARGE     =           0.0000          UZF RECHARGE     =           0.0000
               GW ET     =     4192486.2500                 GW ET     =           1.3524
     SURFACE LEAKAGE     =           0.0000       SURFACE LEAKAGE     =           0.0000
           AG WELLS      =    58980552.0000             AG WELLS      =          22.4700

               TOTAL OUT =   254534752.0000                 TOTAL OUT =          35.6856

                IN - OUT =       -3968.0000                  IN - OUT =       1.5259E-05

     PERCENT DISCREPANCY =          -0.00         PERCENT DISCREPANCY =           0.00






         TIME SUMMARY AT END OF TIME STEP   15 IN STRESS PERIOD    7
                    SECONDS     MINUTES      HOURS       DAYS        YEARS
                    -----------------------------------------------------------
   TIME STEP LENGTH  87667.      1461.1      24.352      1.0147     2.77799E-03
 STRESS PERIOD TIME 1.31500E+06  21917.      365.28      15.220     4.16698E-02
         TOTAL TIME 1.45514E+07 2.42524E+05  4042.1      168.42     0.46111    
1
 
 SOLVING FOR HEAD 
                                                   Max.-Head-Change                         Max.-Flux-Residual
  Residual-Control   Outer-Iter.   Inner-Iter.     Column Row Layer    Maximum-Head-Change  Column Row Layer    Maximum-Flux-Residual          L2-NORM 
          0                 1           2             5    6     1       0.2794023268E-01       5    8    1         0.1522587379E+01      0.3563280668E+01
          0                 2           2             4    7     1      -0.7130058272E-01       5    8    1        -0.3897234317E+01      0.9477933346E+01
          0                 3           2             4    7     1       0.4854791197E-02       5    8    1         0.2727670665E+00      0.6633764791E+00
          0                 4           2             4    7     1      -0.1931768060E-03       5    8    1        -0.1115612332E-01      0.2713206373E-01
          0                 5           1             4    7     1       0.2381953591E-05       5    6    1         0.1413782102E-03      0.3438394109E-03

    ------------------------------------------------
       NWT REQUIRED            5 OUTER ITERATIONS 
       AND A TOTAL OF          9 INNER ITERATIONS.
    ------------------------------------------------

 NO OUTPUT CONTROL FOR STRESS PERIOD    7   TIME STEP   16
 
 SOLVING FOR HEAD 
                                                   Max.-Head-Change                         Max.-Flux-Residual
  Residual-Control   Outer-Iter.   Inner-Iter.     Column Row Layer    Maximum-Head-Change  Column Row Layer    Maximum-Flux-Residual          L2-NORM 
          0                 1           2             5    6     1       0.2863282076E-01       5    8    1         0.1559936372E+01      0.3655243937E+01
          0                 2           2             4    7     1      -0.7135284970E-01       5    8    1        -0.3900969316E+01      0.9486332107E+01
          0                 3           2             4    7     1       0.4858350430E-02       5    8    1         0.2730290375E+00      0.6639651529E+00
          0                 4           2             4    7     1      -0.1933184307E-03       5    8    1        -0.1116689082E-01      0.2715621396E-01
          0                 5           1             4    7     1       0.2383699678E-05       5    6    1         0.1415179490E-03      0.3441493608E-03

    ------------------------------------------------
       NWT REQUIRED            5 OUTER ITERATIONS 
       AND A TOTAL OF          9 INNER ITERATIONS.
    ------------------------------------------------

 NO OUTPUT CONTROL FOR STRESS PERIOD    7   TIME STEP   17
 
 SOLVING FOR HEAD 
                                                   Max.-Head-Change                         Max.-Flux-Residual
  Residual-Control   Outer-Iter.   Inner-Iter.     Column Row Layer    Maximum-Head-Change  Column Row Layer    Maximum-Flux-Residual          L2-NORM 
          0                 1           2             5    6     1       0.2929732690E-01       5    8    1         0.1595701759E+01      0.3744186027E+01
          0                 2           2             4    7     1      -0.7140511254E-01       5    8    1        -0.3904545950E+01      0.9494499334E+01
          0                 3           2             4    7     1       0.4861909371E-02       5    8    1         0.2732798864E+00      0.6645372533E+00
          0                 4           2             4    7     1      -0.1934600443E-03       5    8    1        -0.1117719972E-01      0.2717965226E-01
          0                 5           1             4    7     1       0.2385445765E-05       5    6    1         0.1416485234E-03      0.3444495642E-03

    ------------------------------------------------
       NWT REQUIRED            5 OUTER ITERATIONS 
       AND A TOTAL OF          9 INNER ITERATIONS.
    ------------------------------------------------

 NO OUTPUT CONTROL FOR STRESS PERIOD    7   TIME STEP   18
 
 SOLVING FOR HEAD 
                                                   Max.-Head-Change                         Max.-Flux-Residual
  Residual-Control   Outer-Iter.   Inner-Iter.     Column Row Layer    Maximum-Head-Change  Column Row Layer    Maximum-Flux-Residual          L2-NORM 
          0                 1           2             5    6     1       0.2993539857E-01       5    8    1         0.1629997034E+01      0.3830250154E+01
          0                 2           2             4    7     1      -0.7145731059E-01       5    8    1        -0.3907975571E+01      0.9502445762E+01
          0                 3           2             4    7     1       0.4865463891E-02       5    6    1         0.2735203968E+00      0.6650935952E+00
          0                 4           2             4    7     1      -0.1936014816E-03       5    8    1        -0.1118703917E-01      0.2720242011E-01
          0                 5           1             4    7     1       0.2387189836E-05       5    8    1         0.1417741698E-03      0.3447391365E-03

    ------------------------------------------------
       NWT REQUIRED            5 OUTER ITERATIONS 
       AND A TOTAL OF          9 INNER ITERATIONS.
    ------------------------------------------------

 NO OUTPUT CONTROL FOR STRESS PERIOD    7   TIME STEP   19
 
 SOLVING FOR HEAD 
                                                   Max.-Head-Change                         Max.-Flux-Residual
  Residual-Control   Outer-Iter.   Inner-Iter.     Column Row Layer    Maximum-Head-Change  Column Row Layer    Maximum-Flux-Residual          L2-NORM 
          0                 1           2             5    6     1       0.3054828284E-01       5    8    1         0.1662896685E+01      0.3913534285E+01
          0                 2           2             4    7     1      -0.7150938818E-01       5    8    1        -0.3911265626E+01      0.9510178518E+01
          0                 3           2             4    7     1       0.4869010198E-02       5    6    1         0.2737524358E+00      0.6656348762E+00
          0                 4           2             4    7     1      -0.1937425923E-03       5    6    1        -0.1119649642E-01      0.2722455996E-01
          0                 5           1             4    7     1       0.2388929875E-05       5    6    1         0.1418941040E-03      0.3450199263E-03

    ------------------------------------------------
       NWT REQUIRED            5 OUTER ITERATIONS 
       AND A TOTAL OF          9 INNER ITERATIONS.
    ------------------------------------------------

 NO OUTPUT CONTROL FOR STRESS PERIOD    7   TIME STEP   20
 
 SOLVING FOR HEAD 
                                                   Max.-Head-Change                         Max.-Flux-Residual
  Residual-Control   Outer-Iter.   Inner-Iter.     Column Row Layer    Maximum-Head-Change  Column Row Layer    Maximum-Flux-Residual          L2-NORM 
          0                 1           2             5    6     1       0.3113774128E-01       5    8    1         0.1694492802E+01      0.3994181541E+01
          0                 2           2             4    7     1      -0.7156129512E-01       5    8    1        -0.3914425325E+01      0.9517708284E+01
          0                 3           2             4    7     1       0.4872544878E-02       5    6    1         0.2739754488E+00      0.6661619449E+00
          0                 4           2             4    7     1      -0.1938832405E-03       5    6    1        -0.1120561767E-01      0.2724611619E-01
          0                 5           1             4    7     1       0.2390663640E-05       5    6    1         0.1420097237E-03      0.3452924230E-03

    ------------------------------------------------
       NWT REQUIRED            5 OUTER ITERATIONS 
       AND A TOTAL OF          9 INNER ITERATIONS.
    ------------------------------------------------

 NO OUTPUT CONTROL FOR STRESS PERIOD    7   TIME STEP   21
 
 SOLVING FOR HEAD 
                                                   Max.-Head-Change                         Max.-Flux-Residual
  Residual-Control   Outer-Iter.   Inner-Iter.     Column Row Layer    Maximum-Head-Change  Column Row Layer    Maximum-Flux-Residual          L2-NORM 
          0                 1           2             5    6     1       0.3170510918E-01       5    8    1         0.1724848382E+01      0.4072290937E+01
          0                 2           2             4    7     1      -0.7161298448E-01       5    8    1        -0.3917460967E+01      0.9525041198E+01
          0                 3           2             4    7     1       0.4876064733E-02       5    6    1         0.2741899592E+00      0.6666752357E+00
          0                 4           2             4    7     1      -0.1940232992E-03       5    6    1        -0.1121439114E-01      0.2726711012E-01
          0                 5           1             4    7     1       0.2392391357E-05       5    6    1         0.1421208888E-03      0.3455595632E-03

    ------------------------------------------------
       NWT REQUIRED            5 OUTER ITERATIONS 
       AND A TOTAL OF          9 INNER ITERATIONS.
    ------------------------------------------------

 NO OUTPUT CONTROL FOR STRESS PERIOD    7   TIME STEP   22
 
 SOLVING FOR HEAD 
                                                   Max.-Head-Change                         Max.-Flux-Residual
  Residual-Control   Outer-Iter.   Inner-Iter.     Column Row Layer    Maximum-Head-Change  Column Row Layer    Maximum-Flux-Residual          L2-NORM 
          0                 1           2             5    6     1       0.3225103419E-01       5    8    1         0.1754036595E+01      0.4147966391E+01
          0                 2           2             4    7     1      -0.7166441379E-01       5    8    1        -0.3920379870E+01      0.9532183393E+01
          0                 3           2             4    7     1       0.4879566872E-02       5    6    1         0.2743962199E+00      0.6671751760E+00
          0                 4           2             4    7     1      -0.1941626524E-03       5    6    1        -0.1122282720E-01      0.2728755834E-01
          0                 5           1             4    7     1       0.2394109441E-05       5    6    1         0.1422278103E-03      0.3458181310E-03

    ------------------------------------------------
       NWT REQUIRED            5 OUTER ITERATIONS 
       AND A TOTAL OF          9 INNER ITERATIONS.
    ------------------------------------------------

 NO OUTPUT CONTROL FOR STRESS PERIOD    7   TIME STEP   23
 
 SOLVING FOR HEAD 
                                                   Max.-Head-Change                         Max.-Flux-Residual
  Residual-Control   Outer-Iter.   Inner-Iter.     Column Row Layer    Maximum-Head-Change  Column Row Layer    Maximum-Flux-Residual          L2-NORM 
          0                 1           2             5    6     1       0.3277732888E-01       5    6    1         0.1782144609E+01      0.4221343369E+01
          0                 2           2             4    7     1      -0.7171554477E-01       5    8    1        -0.3923189706E+01      0.9539145115E+01
          0                 3           2             4    7     1       0.4883048691E-02       5    6    1         0.2745949296E+00      0.6676624832E+00
          0                 4           2             4    7     1      -0.1943011972E-03       5    6    1        -0.1123095441E-01      0.2730748970E-01
          0                 5           1             4    7     1       0.2395817891E-05       5    6    1         0.1423307963E-03      0.3460702537E-03

    ------------------------------------------------
       NWT REQUIRED            5 OUTER ITERATIONS 
       AND A TOTAL OF          9 INNER ITERATIONS.
    ------------------------------------------------

 NO OUTPUT CONTROL FOR STRESS PERIOD    7   TIME STEP   24
 
 SOLVING FOR HEAD 
                                                   Max.-Head-Change                         Max.-Flux-Residual
  Residual-Control   Outer-Iter.   Inner-Iter.     Column Row Layer    Maximum-Head-Change  Column Row Layer    Maximum-Flux-Residual          L2-NORM 
          0                 1           2             5    6     1       0.3328476889E-01       5    6    1         0.1809497294E+01      0.4292492605E+01
          0                 2           2             4    7     1      -0.7176634185E-01       5    6    1        -0.3925922101E+01      0.9545930026E+01
          0                 3           2             4    7     1       0.4886507822E-02       5    6    1         0.2747863984E+00      0.6681376391E+00
          0                 4           2             4    7     1      -0.1944388288E-03       5    6    1        -0.1123878550E-01      0.2732690285E-01
          0                 5           1             4    7     1       0.2397514916E-05       5    6    1         0.1424300324E-03      0.3463161082E-03

    ------------------------------------------------
       NWT REQUIRED            5 OUTER ITERATIONS 
       AND A TOTAL OF          9 INNER ITERATIONS.
    ------------------------------------------------

 NO OUTPUT CONTROL FOR STRESS PERIOD    7   TIME STEP   25
 
 SOLVING FOR HEAD 
                                                   Max.-Head-Change                         Max.-Flux-Residual
  Residual-Control   Outer-Iter.   Inner-Iter.     Column Row Layer    Maximum-Head-Change  Column Row Layer    Maximum-Flux-Residual          L2-NORM 
          0                 1           2             5    6     1       0.3377409245E-01       5    6    1         0.1835855789E+01      0.4361533926E+01
          0                 2           2             4    7     1      -0.7181674695E-01       5    6    1        -0.3928557915E+01      0.9552544733E+01
          0                 3           2             4    7     1       0.4889940843E-02       5    6    1         0.2749709078E+00      0.6686019636E+00
          0                 4           2             4    7     1      -0.1945754321E-03       5    6    1        -0.1124633193E-01      0.2734589448E-01
          0                 5           1             4    7     1       0.2399198947E-05       5    6    1         0.1425256808E-03      0.3465603943E-03

    ------------------------------------------------
       NWT REQUIRED            5 OUTER ITERATIONS 
       AND A TOTAL OF          9 INNER ITERATIONS.
    ------------------------------------------------

 NO OUTPUT CONTROL FOR STRESS PERIOD    7   TIME STEP   26
 
 SOLVING FOR HEAD 
                                                   Max.-Head-Change                         Max.-Flux-Residual
  Residual-Control   Outer-Iter.   Inner-Iter.     Column Row Layer    Maximum-Head-Change  Column Row Layer    Maximum-Flux-Residual          L2-NORM 
          0                 1           2             5    6     1       0.3424659137E-01       5    6    1         0.1861291474E+01      0.4428560213E+01
          0                 2           2             4    7     1      -0.7186678653E-01       5    6    1        -0.3931101448E+01      0.9558998162E+01
          0                 3           2             4    7     1       0.4893356267E-02       5    8    1         0.2762752650E+00      0.6695355717E+00
          0                 4           2             4    7     1      -0.1947113353E-03       5    8    1        -0.1129968028E-01      0.2738405862E-01
          0                 5           1             4    7     1       0.2400874801E-05       5    8    1         0.1432017666E-03      0.3470415591E-03

    ------------------------------------------------
       NWT REQUIRED            5 OUTER ITERATIONS 
       AND A TOTAL OF          9 INNER ITERATIONS.
    ------------------------------------------------

 NO OUTPUT CONTROL FOR STRESS PERIOD    7   TIME STEP   27
 
 SOLVING FOR HEAD 
                                                   Max.-Head-Change                         Max.-Flux-Residual
  Residual-Control   Outer-Iter.   Inner-Iter.     Column Row Layer    Maximum-Head-Change  Column Row Layer    Maximum-Flux-Residual          L2-NORM 
          0                 1           2             5    6     1       0.3470317498E-01       5    6    1         0.1885854969E+01      0.4494123464E+01
          0                 2           2             4    7     1      -0.7191637989E-01       5    6    1        -0.3933557764E+01      0.9564522375E+01
          0                 3           2             5    8     1       0.4896801806E-02       5    8    1         0.2775365211E+00      0.6704382940E+00
          0                 4           2             5    8     1      -0.1948484254E-03       5    8    1        -0.1135126596E-01      0.2742098019E-01
          0                 5           1             5    8     1       0.2402565329E-05       5    8    1         0.1438555100E-03      0.3475091898E-03

    ------------------------------------------------
       NWT REQUIRED            5 OUTER ITERATIONS 
       AND A TOTAL OF          9 INNER ITERATIONS.
    ------------------------------------------------

 NO OUTPUT CONTROL FOR STRESS PERIOD    7   TIME STEP   28
 
 SOLVING FOR HEAD 
                                                   Max.-Head-Change                         Max.-Flux-Residual
  Residual-Control   Outer-Iter.   Inner-Iter.     Column Row Layer    Maximum-Head-Change  Column Row Layer    Maximum-Flux-Residual          L2-NORM 
          0                 1           2             5    6     1       0.3514440386E-01       5    8    1         0.1909998994E+01      0.4557993931E+01
          0                 2           2             4    7     1      -0.7196554612E-01       5    6    1        -0.3935929948E+01      0.9571208019E+01
          0                 3           2             5    8     1       0.4921300705E-02       5    8    1         0.2789829660E+00      0.6714149827E+00
          0                 4           2             5    8     1      -0.1958232635E-03       5    8    1        -0.1141042589E-01      0.2746092679E-01
          0                 5           1             5    8     1       0.2414585753E-05       5    8    1         0.1446052588E-03      0.3480314160E-03

    ------------------------------------------------
       NWT REQUIRED            5 OUTER ITERATIONS 
       AND A TOTAL OF          9 INNER ITERATIONS.
    ------------------------------------------------

 NO OUTPUT CONTROL FOR STRESS PERIOD    7   TIME STEP   29
 
 SOLVING FOR HEAD 
                                                   Max.-Head-Change                         Max.-Flux-Residual
  Residual-Control   Outer-Iter.   Inner-Iter.     Column Row Layer    Maximum-Head-Change  Column Row Layer    Maximum-Flux-Residual          L2-NORM 
          0                 1           2             5    6     1       0.3556923321E-01       5    8    1         0.1933628377E+01      0.4627530533E+01
          0                 2           2             4    7     1      -0.7201421649E-01       5    8    1        -0.3938335008E+01      0.9577598508E+01
          0                 3           2             4    7     1       0.4903389214E-02       5    8    1         0.2756553478E+00      0.6703626384E+00
          0                 4           2             4    7     1      -0.1951105564E-03       5    8    1        -0.1127432537E-01      0.2741787928E-01
          0                 5           1             4    7     1       0.2405797741E-05       5    8    1         0.1428804533E-03      0.3474697995E-03

    ------------------------------------------------
       NWT REQUIRED            5 OUTER ITERATIONS 
       AND A TOTAL OF          9 INNER ITERATIONS.
    ------------------------------------------------

 NO OUTPUT CONTROL FOR STRESS PERIOD    7   TIME STEP   30



 STREAM LISTING     PERIOD      7   STEP       30

 LAYER ROW COL. STREAM  RCH.  FLOW INTO     FLOW TO   FLOW OUT OF   OVRLND.     DIRECT     STREAM       STREAM     STREAM     STREAM   STREAMBED  STREAMBED
                SEG.NO.  NO.  STRM. RCH.    AQUIFER    STRM. RCH.    RUNOFF     PRECIP       ET          HEAD       DEPTH      WIDTH   CONDCTNC.   GRADIENT

   1    1    1     1     1    7.6939E+01  4.2690E-01   7.6512E+01  0.000E+00  0.000E+00  0.000E+00  1.09476E+03  1.708E+00  2.015E+01  9.068E-02  1.569E+00
   1    2    2     1     2    7.6512E+01  6.6216E-01   7.5850E+01  0.000E+00  0.000E+00  0.000E+00  1.08976E+03  1.705E+00  2.010E+01  1.407E-01  1.568E+00
   1    3    3     1     3    7.5850E+01  5.6572E-01   7.5284E+01  0.000E+00  0.000E+00  0.000E+00  1.08412E+03  1.703E+00  2.005E+01  1.203E-01  1.568E+00
   1    3    4     1     4    7.5284E+01  5.2177E-01   7.4762E+01  0.000E+00  0.000E+00  0.000E+00  1.07911E+03  1.700E+00  2.000E+01  1.110E-01  1.567E+00
   1    4    5     2     1    7.2762E+01  4.1250E-01   7.2350E+01  0.000E+00  0.000E+00  0.000E+00  1.07422E+03  2.288E+00  1.200E+01  7.800E-02  1.763E+00
   1    5    6     2     2    7.2350E+01  3.1689E-01   7.2033E+01  0.000E+00  0.000E+00  0.000E+00  1.06879E+03  2.282E+00  1.200E+01  6.000E-02  1.761E+00
   1    6    6     2     3    7.2033E+01  3.1653E-01   7.1717E+01  0.000E+00  0.000E+00  0.000E+00  1.06407E+03  2.276E+00  1.200E+01  6.000E-02  1.759E+00
   1    7    6     2     4    7.1717E+01  3.1617E-01   7.1400E+01  0.000E+00  0.000E+00  0.000E+00  1.05934E+03  2.270E+00  1.200E+01  6.000E-02  1.757E+00
   1    8    6     2     5    7.1400E+01  3.1581E-01   7.1085E+01  0.000E+00  0.000E+00  0.000E+00  1.05462E+03  2.264E+00  1.200E+01  6.000E-02  1.755E+00
   1    3    5     3     1    2.0000E+00  2.8252E-01   1.7175E+00  0.000E+00  0.000E+00  0.000E+00  1.07555E+03  1.909E+00  9.636E+00  7.227E-02  1.955E+00
   1    3    6     3     2    1.7175E+00  2.4905E-01   1.4684E+00  0.000E+00  0.000E+00  0.000E+00  1.07264E+03  1.727E+00  8.909E+00  6.682E-02  1.864E+00
   1    3    7     3     3    1.4684E+00  1.9718E-01   1.2712E+00  0.000E+00  0.000E+00  0.000E+00  1.06987E+03  1.555E+00  8.218E+00  5.547E-02  1.777E+00
   1    4    8     3     4    1.2712E+00  2.2567E-01   1.0456E+00  0.000E+00  0.000E+00  0.000E+00  1.06682E+03  1.364E+00  7.455E+00  6.709E-02  1.682E+00
   1    5    8     3     5    1.0456E+00  1.5790E-01   8.8768E-01  0.000E+00  0.000E+00  0.000E+00  1.06362E+03  1.164E+00  6.655E+00  4.991E-02  1.582E+00
   1    6    8     3     6    8.8768E-01  5.5980E-02   8.3170E-01  0.000E+00  0.000E+00  0.000E+00  1.06158E+03  1.036E+00  6.145E+00  1.844E-02  1.518E+00
   1    5   10     4     1    1.0000E+01  9.0919E-02   9.9091E+00  0.000E+00  0.000E+00  0.000E+00  1.07836E+03  6.368E-01  1.000E+01  2.500E-02  1.212E+00
   1    5    9     4     2    9.9091E+00  1.8158E-01   9.7275E+00  0.000E+00  0.000E+00  0.000E+00  1.07154E+03  6.315E-01  1.000E+01  5.000E-02  1.211E+00
   1    6    8     4     3    9.7275E+00  1.2689E-01   9.6006E+00  0.000E+00  0.000E+00  0.000E+00  1.06381E+03  6.256E-01  1.000E+01  3.500E-02  1.209E+00
   1    6    8     5     1    1.0432E+01  2.2686E-01   1.0205E+01  0.000E+00  0.000E+00  0.000E+00  1.05868E+03  6.790E-01  1.542E+01  6.166E-02  1.226E+00
   1    7    7     5     2    1.0205E+01  2.7894E-01   9.9265E+00  0.000E+00  0.000E+00  0.000E+00  1.05417E+03  6.732E-01  1.519E+01  7.594E-02  1.224E+00
   1    8    7     5     3    9.9265E+00  1.9221E-01   9.7343E+00  0.000E+00  0.000E+00  0.000E+00  1.04992E+03  6.676E-01  1.497E+01  5.241E-02  1.223E+00
   1    8    6     5     4    9.7343E+00  1.3577E-01   9.5985E+00  0.000E+00  0.000E+00  0.000E+00  1.04691E+03  6.637E-01  1.482E+01  3.706E-02  1.221E+00
   1    9    6     6     1    8.0683E+01  3.2780E-01   8.0355E+01  0.000E+00  0.000E+00  0.000E+00  1.04519E+03  2.463E+00  1.200E+01  6.000E-02  1.821E+00
   1   10    7     6     2    8.0355E+01  3.2743E-01   8.0028E+01  0.000E+00  0.000E+00  0.000E+00  1.04064E+03  2.457E+00  1.200E+01  6.000E-02  1.819E+00
   1   11    7     6     3    8.0028E+01  3.2707E-01   7.9701E+01  0.000E+00  0.000E+00  0.000E+00  1.03609E+03  2.451E+00  1.200E+01  6.000E-02  1.817E+00
   1   12    7     6     4    7.9701E+01  3.2671E-01   7.9374E+01  0.000E+00  0.000E+00  0.000E+00  1.03154E+03  2.445E+00  1.200E+01  6.000E-02  1.815E+00
   1   13    7     6     5    7.9374E+01  2.6851E-02   7.9347E+01  0.000E+00  0.000E+00  0.000E+00  1.02835E+03  2.442E+00  1.200E+01  2.400E-02  3.729E-01
   1   14    9     7     1    1.5000E+02  1.3318E+00   1.4867E+02  0.000E+00  0.000E+00  0.000E+00  1.03987E+03  2.288E+00  5.529E+01  5.593E-01  7.937E-01
   1   13    8     7     2    1.4867E+02  1.8024E+00   1.4687E+02  0.000E+00  0.000E+00  0.000E+00  1.03478E+03  2.279E+00  5.526E+01  6.148E-01  9.773E-01
   1   13    7     7     3    1.4687E+02  1.3727E+00   1.4549E+02  0.000E+00  0.000E+00  0.000E+00  1.02969E+03  2.271E+00  5.522E+01  5.585E-01  8.193E-01
   1   13    6     8     1    2.2484E+02  1.0256E+00   2.2381E+02  0.000E+00  0.000E+00  0.000E+00  1.02515E+03  3.276E+00  4.750E+01  4.840E-01  7.063E-01
   1   13    5     8     2    2.2381E+02  2.0293E-01   2.2361E+02  0.000E+00  0.000E+00  0.000E+00  1.01890E+03  3.272E+00  4.745E+01  4.835E-01  1.399E-01
   1   13    4     8     3    2.2361E+02 -2.0940E+00   2.2571E+02  0.000E+00  0.000E+00  0.000E+00  1.01265E+03  3.278E+00  4.752E+01  4.843E+00 -1.441E-01
   1   13    3     8     4    2.2571E+02 -3.2525E+00   2.2896E+02  0.000E+00  0.000E+00  0.000E+00  1.00642E+03  3.292E+00  4.774E+01  4.864E+00 -2.229E-01
   1   13    2     8     5    2.2896E+02 -2.6238E+00   2.3158E+02  0.000E+00  0.000E+00  0.000E+00  1.00018E+03  3.308E+00  4.797E+01  4.888E+00 -1.789E-01
   1   13    1     8     6    2.3158E+02 -2.0372E+00   2.3362E+02  0.000E+00  0.000E+00  0.000E+00  9.95196E+02  3.321E+00  4.815E+01  2.944E+00 -2.307E-01





UNSATURATED ZONE PACKAGE VOLUMETRIC BUDGET FOR  TIME STEP    30 STRESS PERIOD    7
  ------------------------------------------------------------------------------



     CUMULATIVE VOLUMES      L**3       RATES FOR THIS TIME STEP      L**3/T
     ------------------                 ------------------------

           IN:                                      IN:
           ---                                      ---
        INFILTRATION =   101975359.5209          INFILTRATION =          23.3175

          OUT:                                     OUT:
          ----                                     ----
              UZF ET =   101898768.1230                UZF ET =          23.3175
        UZF RECHARGE =       73224.0000          UZF RECHARGE =       0.0000E+00

            IN - OUT =        3367.3979              IN - OUT =       0.0000E+00

          STORAGE:                                 STORAGE:
          --------                                 --------
      STORAGE CHANGE =        3367.4603        STORAGE CHANGE =       3.3446E-12

 PERCENT DISCREPANCY IS DIFFERENCE BETWEEN IN-OUT MINUS CHANGE IN STORAGE
 DIVIDED BY THE AVERAGE OF IN AND OUT TIMES 100

 PERCENT DISCREPANCY =           0.00     PERCENT DISCREPANCY =           0.00






1
  VOLUMETRIC BUDGET FOR AGRICULTURAL FIELDS AT  END OF TIME STEP   30, STRESS PERIOD   7
  ------------------------------------------------------------------------------

     CUMULATIVE VOLUMES      L**3       RATES FOR THIS TIME STEP      L**3/T
     ------------------                 ------------------------

           IN:                                      IN:
           ---                                      ---
           AG WELLS      =    88528632.0000             AG WELLS      =          22.4700
      DIVERSION SEGMENTS =           0.0000        DIVERSION SEGMENTS =           0.0000
           GW IRRIGATION =           0.0000             GW IRRIGATION =           0.0000
           SW IRRIGATION =           0.0000             SW IRRIGATION =           0.0000
        SYSTEM LOSSES GW =           0.0000          SYSTEM LOSSES GW =           0.0000
        SYSTEM LOSSES SW =           0.0000          SYSTEM LOSSES SW =           0.0000

                TOTAL IN =    88528632.0000                  TOTAL IN =          22.4700

          OUT:                                     OUT:
          ----                                     ----
           AG WELLS      =           0.0000             AG WELLS      =           0.0000
      DIVERSION SEGMENTS =           0.0000        DIVERSION SEGMENTS =           0.0000
           GW IRRIGATION =    88528632.0000             GW IRRIGATION =          22.4700
           SW IRRIGATION =           0.0000             SW IRRIGATION =           0.0000
        SYSTEM LOSSES GW =           0.0000          SYSTEM LOSSES GW =           0.0000
        SYSTEM LOSSES SW =           0.0000          SYSTEM LOSSES SW =           0.0000

               TOTAL OUT =    88528632.0000                 TOTAL OUT =          22.4700

                IN - OUT =           0.0000                  IN - OUT =           0.0000

     PERCENT DISCREPANCY =           0.00         PERCENT DISCREPANCY =           0.00



1
  VOLUMETRIC BUDGET FOR ENTIRE MODEL AT END OF TIME STEP   30, STRESS PERIOD   7
  ------------------------------------------------------------------------------

     CUMULATIVE VOLUMES      L**3       RATES FOR THIS TIME STEP      L**3/T
     ------------------                 ------------------------

           IN:                                      IN:
           ---                                      ---
             STORAGE     =    94422976.0000               STORAGE     =          22.0170
       CONSTANT HEAD     =           0.0000         CONSTANT HEAD     =           0.0000
     HEAD DEP BOUNDS     =     4529104.5000       HEAD DEP BOUNDS     =           0.2855
      STREAM LEAKAGE     =   202204496.0000        STREAM LEAKAGE     =          13.3273
        UZF RECHARGE     =       73223.9531          UZF RECHARGE     =           0.0000
               GW ET     =           0.0000                 GW ET     =           0.0000
     SURFACE LEAKAGE     =           0.0000       SURFACE LEAKAGE     =           0.0000
           AG WELLS      =           0.0000             AG WELLS      =           0.0000

                TOTAL IN =   301229792.0000                  TOTAL IN =          35.6297

          OUT:                                     OUT:
          ----                                     ----
             STORAGE     =    41762440.0000               STORAGE     =           1.5739
       CONSTANT HEAD     =           0.0000         CONSTANT HEAD     =           0.0000
     HEAD DEP BOUNDS     =     4674106.0000       HEAD DEP BOUNDS     =           0.2997
      STREAM LEAKAGE     =   160347648.0000        STREAM LEAKAGE     =          10.0076
        UZF RECHARGE     =           0.0000          UZF RECHARGE     =           0.0000
               GW ET     =     5920987.0000                 GW ET     =           1.2785
     SURFACE LEAKAGE     =           0.0000       SURFACE LEAKAGE     =           0.0000
           AG WELLS      =    88528632.0000             AG WELLS      =          22.4700

               TOTAL OUT =   301233824.0000                 TOTAL OUT =          35.6297

                IN - OUT =       -4032.0000                  IN - OUT =       1.9073E-05

     PERCENT DISCREPANCY =          -0.00         PERCENT DISCREPANCY =           0.00






         TIME SUMMARY AT END OF TIME STEP   30 IN STRESS PERIOD    7
                    SECONDS     MINUTES      HOURS       DAYS        YEARS
                    -----------------------------------------------------------
   TIME STEP LENGTH  87667.      1461.1      24.352      1.0147     2.77799E-03
 STRESS PERIOD TIME 2.63000E+06  43833.      730.56      30.440     8.33397E-02
         TOTAL TIME 1.58664E+07 2.64440E+05  4407.3      183.64     0.50278    
1
1
                            STRESS PERIOD NO.    8, LENGTH =   2630000.    
                            -----------------------------------------------

                              NUMBER OF TIME STEPS =    30

                               MULTIPLIER FOR DELT =     1.000

                            INITIAL TIME STEP SIZE =   87666.66    

 REUSING NON-PARAMETER GHB CELLS FROM LAST STRESS PERIOD

      2 GHB CELLS

 REUSING STREAM SEGMENT DATA FROM LAST STRESS PERIOD



            AREAL INFILTRATION RATE
 READING ON UNIT   19 WITH FORMAT: (FREE)              

            1           2           3           4           5           6           7           8           9          10
 ........................................................................................................................
   1   1.0000E-10  2.0000E-10   0.000       0.000       0.000       0.000       0.000       0.000       0.000       0.000    
   2   2.0000E-10  1.0000E-10  2.0000E-10   0.000       0.000      8.0000E-10  8.0000E-10  5.0000E-10   0.000       0.000    
   3    0.000      5.0000E-10  1.0000E-10  1.0000E-10  8.0000E-10  8.0000E-10  5.0000E-10  5.0000E-10   0.000       0.000    
   4   8.0000E-10  5.0000E-10  1.0000E-10  1.0000E-10  1.0000E-10  1.0000E-10  1.0000E-10  1.0000E-10  2.0000E-10   0.000    
   5   8.0000E-10  5.0000E-10  1.0000E-10  1.0000E-10  1.0000E-10  1.0000E-10  1.0000E-10  1.0000E-10  1.0000E-10  1.0000E-10
   6   8.0000E-10  5.0000E-10  5.0000E-10  2.0000E-10  2.0000E-10  1.0000E-10  1.0000E-10  1.0000E-10  1.0000E-10  5.0000E-10
   7   8.0000E-10  5.0000E-10  5.0000E-10  2.0000E-10  2.0000E-10  1.0000E-10  1.0000E-10  2.0000E-10  2.0000E-10   0.000    
   8    0.000      5.0000E-10  5.0000E-10  2.0000E-10  2.0000E-10  1.0000E-10  1.0000E-10  2.0000E-10  5.0000E-10   0.000    
   9    0.000      5.0000E-10  5.0000E-10  2.0000E-10  2.0000E-10  1.0000E-10  1.0000E-10  2.0000E-10  5.0000E-10   0.000    
  10    0.000      5.0000E-10  5.0000E-10  2.0000E-10  2.0000E-10  1.0000E-10  1.0000E-10  2.0000E-10  5.0000E-10  8.0000E-10
  11    0.000      1.0000E-10  1.0000E-10  1.0000E-10  1.0000E-10  1.0000E-10  1.0000E-10  2.0000E-10  5.0000E-10   0.000    
  12   1.0000E-10  1.0000E-10  1.0000E-10  1.0000E-10  1.0000E-10  1.0000E-10  1.0000E-10  1.0000E-10  2.0000E-10   0.000    
  13   1.0000E-10  1.0000E-10  2.0000E-10  2.0000E-10  2.0000E-10  2.0000E-10  2.0000E-10  1.0000E-10  1.0000E-10   0.000    
  14    0.000      2.0000E-10  5.0000E-10  5.0000E-10  5.0000E-10  5.0000E-10  5.0000E-10  2.0000E-10  1.0000E-10   0.000    
  15    0.000       0.000      8.0000E-10  8.0000E-10  8.0000E-10  8.0000E-10   0.000       0.000       0.000       0.000    

                  ET RATE =  4.000000E-07

 USING ET EXTINCTION DEPTH FROM PREVIOUS STRESS PERIOD. CURRENT PERIOD IS:       8

 USING EXTINCTION WATER CONTENT FROM PREVIOUS STRESS PERIOD. CURRENT PERIOD IS:       8

 USING AIR ENTRY PRESSURE FROM PREVIOUS STRESS PERIOD. CURRENT PERIOD IS:       8

 USING ROOT PRESSURE HEAD FROM PREVIOUS STRESS PERIOD. CURRENT PERIOD IS:       8

 USING ROOT ACTIVITY FROM PREVIOUS STRESS PERIOD. CURRENT PERIOD IS:       8

 PROCESSING AG STRESS PERIOD DATA

 READING AG STRESS PERIOD DATA

 READING IRRIGATION WELL

 END PROCESSING AG STRESS PERIOD DATA OPTIONS
 
 SOLVING FOR HEAD 
                                                   Max.-Head-Change                         Max.-Flux-Residual
  Residual-Control   Outer-Iter.   Inner-Iter.     Column Row Layer    Maximum-Head-Change  Column Row Layer    Maximum-Flux-Residual          L2-NORM 
          0                 1           2             4    7     1      -0.1679663205E+00       4    7    1        -0.8783352728E+01      0.2062284015E+02
          0                 2           2             6    7     1       0.1560929976E-02       4   13    1         0.1203992652E+00      0.2955045265E+00
          0                 3           2             4    7     1      -0.1177485110E-01       4    7    1        -0.6497841794E+00      0.1584107925E+01
          0                 4           2             4    7     1      -0.9003711805E-02       5    8    1        -0.4969920095E+00      0.1217171611E+01
          0                 5           2             4    7     1      -0.7402927966E-02       4    7    1        -0.4084563216E+00      0.1000496750E+01
          0                 6           2             4    7     1      -0.6106935056E-02       5    8    1        -0.3369468971E+00      0.8253476295E+00
          0                 7           2             4    7     1      -0.5064279500E-02       4    7    1        -0.2794159407E+00      0.6844264549E+00
          0                 8           2             4    7     1      -0.4216309490E-02       4    7    1        -0.2326278968E+00      0.5698196451E+00
          0                 9           2             4    7     1      -0.3521451620E-02       4    7    1        -0.1942883873E+00      0.4759074098E+00
          0                10           2             4    7     1      -0.2948582649E-02       4    7    1        -0.1626800255E+00      0.3984830524E+00
                                                   Max.-Head-Change                         Max.-Flux-Residual
  Residual-Control   Outer-Iter.   Inner-Iter.     Column Row Layer    Maximum-Head-Change  Column Row Layer    Maximum-Flux-Residual          L2-NORM 
          0                11           2             4    7     1      -0.2473999217E-02       4    7    1        -0.1364948596E+00      0.3343427574E+00
          0                12           2             4    7     1      -0.2079312029E-02       4    7    1        -0.1147181721E+00      0.2810009853E+00
          0                13           2             4    7     1      -0.1750028199E-02       4    7    1        -0.9655025300E-01      0.2364988539E+00
          0                14           2             4    7     1      -0.1474572153E-02       4    7    1        -0.8135237121E-01      0.1992717985E+00
          0                15           2             4    7     1      -0.1243668854E-02       4    7    1        -0.6861274052E-01      0.1680662039E+00
          0                16           2             4    7     1      -0.1049764055E-02       4    7    1        -0.5791452882E-01      0.1418610441E+00
          0                17           2             4    7     1      -0.8866677502E-03       4    7    1        -0.4891618341E-01      0.1198196895E+00
          0                18           2             4    7     1      -0.7493267819E-03       4    7    1        -0.4133888235E-01      0.1012591683E+00
          0                19           2             4    7     1      -0.6335575717E-03       4    7    1        -0.3495178703E-01      0.8561404377E-01
          0                20           2             4    7     1      -0.5358842116E-03       4    7    1        -0.2956310777E-01      0.7241452927E-01
                                                   Max.-Head-Change                         Max.-Flux-Residual
  Residual-Control   Outer-Iter.   Inner-Iter.     Column Row Layer    Maximum-Head-Change  Column Row Layer    Maximum-Flux-Residual          L2-NORM 
          0                21           2             4    7     1      -0.4534240950E-03       5    7    1        -0.2501379264E-01      0.6127102847E-01
          0                22           2             4    7     1      -0.3837543136E-03       4    7    1        -0.2117015544E-01      0.5185607869E-01
          0                23           2             4    7     1      -0.3248652756E-03       4    7    1        -0.1792131590E-01      0.4389807953E-01
          0                24           2             4    7     1      -0.2750588822E-03       5    7    1        -0.1517358157E-01      0.3716753239E-01
          0                25           2             4    7     1      -0.2329527132E-03       4    6    1        -0.1285067765E-01      0.3147760328E-01
          0                26           2             4    7     1      -0.1973069704E-03       4    7    1        -0.1088419997E-01      0.2666073620E-01
          0                27           2             4    7     1      -0.1671353190E-03       4    7    1        -0.9219728798E-02      0.2258363140E-01
          0                28           2             4    7     1      -0.1415793133E-03       4    8    1        -0.7809901221E-02      0.1913027301E-01
          0                29           2             4    7     1      -0.1199481339E-03       5    7    1        -0.6616602797E-02      0.1620730069E-01
          0                30           1             4    7     1      -0.1016478041E-03       4    8    1        -0.5607062425E-02      0.1373444194E-01
          0                31           1             4    7     1      -0.8611493425E-04       4    8    1        -0.4750207645E-02      0.1163556168E-01

    ------------------------------------------------
       NWT REQUIRED           31 OUTER ITERATIONS 
       AND A TOTAL OF         60 INNER ITERATIONS.
    ------------------------------------------------

 OUTPUT CONTROL FOR STRESS PERIOD    8   TIME STEP    1
    PRINT BUDGET
    SAVE BUDGET
 UBDSV1 SAVING "         STORAGE" ON UNIT 102 AT TIME STEP 1, STRESS PERIOD 8
 UBDSV2 SAVING "   CONSTANT HEAD" ON UNIT 102 AT TIME STEP 1, STRESS PERIOD 8
 UBDSV1 SAVING "FLOW RIGHT FACE " ON UNIT 102 AT TIME STEP 1, STRESS PERIOD 8
 UBDSV1 SAVING "FLOW FRONT FACE " ON UNIT 102 AT TIME STEP 1, STRESS PERIOD 8

  HEAD DEP BOUNDS   PERIOD    8   STEP     1
 BOUNDARY      1   LAYER   1   ROW    13   COL     1   RATE   -0.299663    
 BOUNDARY      2   LAYER   1   ROW    14   COL     9   RATE    0.285485    



 STREAM LISTING     PERIOD      8   STEP        1

 LAYER ROW COL. STREAM  RCH.  FLOW INTO     FLOW TO   FLOW OUT OF   OVRLND.     DIRECT     STREAM       STREAM     STREAM     STREAM   STREAMBED  STREAMBED
                SEG.NO.  NO.  STRM. RCH.    AQUIFER    STRM. RCH.    RUNOFF     PRECIP       ET          HEAD       DEPTH      WIDTH   CONDCTNC.   GRADIENT

   1    1    1     1     1    7.5000E+01  4.2232E-01   7.4578E+01  0.000E+00  0.000E+00  0.000E+00  1.09475E+03  1.698E+00  1.998E+01  8.990E-02  1.566E+00
   1    2    2     1     2    7.4578E+01  6.5422E-01   7.3924E+01  0.000E+00  0.000E+00  0.000E+00  1.08975E+03  1.692E+00  1.992E+01  1.394E-01  1.564E+00
   1    3    3     1     3    7.3924E+01  5.5813E-01   7.3366E+01  0.000E+00  0.000E+00  0.000E+00  1.08410E+03  1.685E+00  1.985E+01  1.191E-01  1.562E+00
   1    3    4     1     4    7.3366E+01  5.1412E-01   7.2852E+01  0.000E+00  0.000E+00  0.000E+00  1.07909E+03  1.679E+00  1.980E+01  1.099E-01  1.560E+00
   1    4    5     2     1    7.0852E+01  4.0967E-01   7.0442E+01  0.000E+00  0.000E+00  0.000E+00  1.07419E+03  2.252E+00  1.200E+01  7.800E-02  1.751E+00
   1    5    6     2     2    7.0442E+01  3.1471E-01   7.0127E+01  0.000E+00  0.000E+00  0.000E+00  1.06875E+03  2.245E+00  1.200E+01  6.000E-02  1.748E+00
   1    6    6     2     3    7.0127E+01  3.1435E-01   6.9813E+01  0.000E+00  0.000E+00  0.000E+00  1.06403E+03  2.239E+00  1.200E+01  6.000E-02  1.746E+00
   1    7    6     2     4    6.9813E+01  3.1399E-01   6.9499E+01  0.000E+00  0.000E+00  0.000E+00  1.05931E+03  2.233E+00  1.200E+01  6.000E-02  1.744E+00
   1    8    6     2     5    6.9499E+01  3.1363E-01   6.9185E+01  0.000E+00  0.000E+00  0.000E+00  1.05459E+03  2.227E+00  1.200E+01  6.000E-02  1.742E+00
   1    3    5     3     1    2.0000E+00  2.8252E-01   1.7175E+00  0.000E+00  0.000E+00  0.000E+00  1.07555E+03  1.909E+00  9.636E+00  7.227E-02  1.955E+00
   1    3    6     3     2    1.7175E+00  2.4905E-01   1.4684E+00  0.000E+00  0.000E+00  0.000E+00  1.07264E+03  1.727E+00  8.909E+00  6.682E-02  1.864E+00
   1    3    7     3     3    1.4684E+00  1.9718E-01   1.2712E+00  0.000E+00  0.000E+00  0.000E+00  1.06987E+03  1.555E+00  8.218E+00  5.547E-02  1.777E+00
   1    4    8     3     4    1.2712E+00  2.2567E-01   1.0456E+00  0.000E+00  0.000E+00  0.000E+00  1.06682E+03  1.364E+00  7.455E+00  6.709E-02  1.682E+00
   1    5    8     3     5    1.0456E+00  1.5790E-01   8.8768E-01  0.000E+00  0.000E+00  0.000E+00  1.06362E+03  1.164E+00  6.655E+00  4.991E-02  1.582E+00
   1    6    8     3     6    8.8768E-01  5.5980E-02   8.3170E-01  0.000E+00  0.000E+00  0.000E+00  1.06158E+03  1.036E+00  6.145E+00  1.844E-02  1.518E+00
   1    5   10     4     1    1.0000E+01  9.0919E-02   9.9091E+00  0.000E+00  0.000E+00  0.000E+00  1.07836E+03  6.368E-01  1.000E+01  2.500E-02  1.212E+00
   1    5    9     4     2    9.9091E+00  1.8158E-01   9.7275E+00  0.000E+00  0.000E+00  0.000E+00  1.07154E+03  6.315E-01  1.000E+01  5.000E-02  1.211E+00
   1    6    8     4     3    9.7275E+00  1.2689E-01   9.6006E+00  0.000E+00  0.000E+00  0.000E+00  1.06381E+03  6.256E-01  1.000E+01  3.500E-02  1.209E+00
   1    6    8     5     1    1.0432E+01  2.2686E-01   1.0205E+01  0.000E+00  0.000E+00  0.000E+00  1.05868E+03  6.790E-01  1.542E+01  6.166E-02  1.226E+00
   1    7    7     5     2    1.0205E+01  2.7894E-01   9.9265E+00  0.000E+00  0.000E+00  0.000E+00  1.05417E+03  6.732E-01  1.519E+01  7.594E-02  1.224E+00
   1    8    7     5     3    9.9265E+00  1.9221E-01   9.7343E+00  0.000E+00  0.000E+00  0.000E+00  1.04992E+03  6.676E-01  1.497E+01  5.241E-02  1.223E+00
   1    8    6     5     4    9.7343E+00  1.3577E-01   9.5985E+00  0.000E+00  0.000E+00  0.000E+00  1.04691E+03  6.637E-01  1.482E+01  3.706E-02  1.221E+00
   1    9    6     6     1    7.8784E+01  3.2569E-01   7.8458E+01  0.000E+00  0.000E+00  0.000E+00  1.04516E+03  2.428E+00  1.200E+01  6.000E-02  1.809E+00
   1   10    7     6     2    7.8458E+01  3.2533E-01   7.8133E+01  0.000E+00  0.000E+00  0.000E+00  1.04060E+03  2.422E+00  1.200E+01  6.000E-02  1.807E+00
   1   11    7     6     3    7.8133E+01  3.2497E-01   7.7808E+01  0.000E+00  0.000E+00  0.000E+00  1.03605E+03  2.416E+00  1.200E+01  6.000E-02  1.805E+00
   1   12    7     6     4    7.7808E+01  3.2461E-01   7.7483E+01  0.000E+00  0.000E+00  0.000E+00  1.03150E+03  2.410E+00  1.200E+01  6.000E-02  1.803E+00
   1   13    7     6     5    7.7483E+01  2.5997E-02   7.7457E+01  0.000E+00  0.000E+00  0.000E+00  1.02832E+03  2.407E+00  1.200E+01  2.400E-02  3.611E-01
   1   14    9     7     1    1.5000E+02  1.3318E+00   1.4867E+02  0.000E+00  0.000E+00  0.000E+00  1.03987E+03  2.288E+00  5.529E+01  5.593E-01  7.937E-01
   1   13    8     7     2    1.4867E+02  1.8022E+00   1.4687E+02  0.000E+00  0.000E+00  0.000E+00  1.03478E+03  2.279E+00  5.526E+01  6.148E-01  9.772E-01
   1   13    7     7     3    1.4687E+02  1.3725E+00   1.4549E+02  0.000E+00  0.000E+00  0.000E+00  1.02969E+03  2.271E+00  5.522E+01  5.585E-01  8.192E-01
   1   13    6     8     1    2.2295E+02  1.0174E+00   2.2193E+02  0.000E+00  0.000E+00  0.000E+00  1.02514E+03  3.265E+00  4.735E+01  4.825E-01  7.028E-01
   1   13    5     8     2    2.2193E+02  1.9745E-01   2.2174E+02  0.000E+00  0.000E+00  0.000E+00  1.01889E+03  3.262E+00  4.730E+01  4.820E-01  1.366E-01
   1   13    4     8     3    2.2174E+02 -2.0673E+00   2.2380E+02  0.000E+00  0.000E+00  0.000E+00  1.01264E+03  3.267E+00  4.737E+01  4.828E+00 -1.427E-01
   1   13    3     8     4    2.2380E+02 -3.2221E+00   2.2703E+02  0.000E+00  0.000E+00  0.000E+00  1.00641E+03  3.282E+00  4.758E+01  4.849E+00 -2.215E-01
   1   13    2     8     5    2.2703E+02 -2.6521E+00   2.2968E+02  0.000E+00  0.000E+00  0.000E+00  1.00017E+03  3.298E+00  4.782E+01  4.873E+00 -1.814E-01
   1   13    1     8     6    2.2968E+02 -2.0559E+00   2.3173E+02  0.000E+00  0.000E+00  0.000E+00  9.95185E+02  3.310E+00  4.800E+01  2.935E+00 -2.335E-01



 UBDSV3 SAVING "           GW ET" ON UNIT  61 AT TIME STEP 1, STRESS PERIOD 8
 UBDSV3 SAVING "    UZF RECHARGE" ON UNIT  61 AT TIME STEP 1, STRESS PERIOD 8
 UBDSV3 SAVING " SURFACE LEAKAGE" ON UNIT  61 AT TIME STEP 1, STRESS PERIOD 8
 UBDSV3 SAVING "       HORT+DUNN" ON UNIT  61 AT TIME STEP 1, STRESS PERIOD 8
 UBDSV3 SAVING "  STORAGE CHANGE" ON UNIT  61 AT TIME STEP 1, STRESS PERIOD 8


UNSATURATED ZONE PACKAGE VOLUMETRIC BUDGET FOR  TIME STEP     1 STRESS PERIOD    8
  ------------------------------------------------------------------------------



     CUMULATIVE VOLUMES      L**3       RATES FOR THIS TIME STEP      L**3/T
     ------------------                 ------------------------

           IN:                                      IN:
           ---                                      ---
        INFILTRATION =   109705412.0168          INFILTRATION =          88.1755

          OUT:                                     OUT:
          ----                                     ----
              UZF ET =   107228214.9939                UZF ET =          60.7922
        UZF RECHARGE =       73224.0000          UZF RECHARGE =       0.0000E+00

            IN - OUT =     2403973.0229              IN - OUT =          27.3833

          STORAGE:                                 STORAGE:
          --------                                 --------
      STORAGE CHANGE =     2403972.9025        STORAGE CHANGE =          27.3833

 PERCENT DISCREPANCY IS DIFFERENCE BETWEEN IN-OUT MINUS CHANGE IN STORAGE
 DIVIDED BY THE AVERAGE OF IN AND OUT TIMES 100

 PERCENT DISCREPANCY =           0.00     PERCENT DISCREPANCY =           0.00






 

        AG WELLS          PERIOD    8   STEP   1
 AG WELL      1   LAYER   1   ROW     6   COL     4   RATE    -14.5547    
 AG WELL      2   LAYER   1   ROW     6   COL     5   RATE    -14.5547    
 AG WELL      3   LAYER   1   ROW     7   COL     4   RATE    -14.5547    
 AG WELL      4   LAYER   1   ROW     7   COL     5   RATE    -14.5547    
 AG WELL      5   LAYER   1   ROW     8   COL     4   RATE    -14.5547    
 AG WELL      6   LAYER   1   ROW     8   COL     5   RATE    -14.5547    
 
 

        GW IRRIGATION     PERIOD    8   STEP   1
 AG WELL      1   ROW     6   COL     4   RATE     14.5547    
 AG WELL      2   ROW     6   COL     5   RATE     14.5547    
 AG WELL      3   ROW     7   COL     4   RATE     14.5547    
 AG WELL      4   ROW     7   COL     5   RATE     14.5547    
 AG WELL      5   ROW     8   COL     4   RATE     14.5547    
 AG WELL      6   ROW     8   COL     5   RATE     14.5547    
 
1
  VOLUMETRIC BUDGET FOR AGRICULTURAL FIELDS AT  END OF TIME STEP    1, STRESS PERIOD   8
  ------------------------------------------------------------------------------

     CUMULATIVE VOLUMES      L**3       RATES FOR THIS TIME STEP      L**3/T
     ------------------                 ------------------------

           IN:                                      IN:
           ---                                      ---
           AG WELLS      =    96184384.0000             AG WELLS      =          87.3280
      DIVERSION SEGMENTS =           0.0000        DIVERSION SEGMENTS =           0.0000
           GW IRRIGATION =           0.0000             GW IRRIGATION =           0.0000
           SW IRRIGATION =           0.0000             SW IRRIGATION =           0.0000
        SYSTEM LOSSES GW =           0.0000          SYSTEM LOSSES GW =           0.0000
        SYSTEM LOSSES SW =           0.0000          SYSTEM LOSSES SW =           0.0000

                TOTAL IN =    96184384.0000                  TOTAL IN =          87.3280

          OUT:                                     OUT:
          ----                                     ----
           AG WELLS      =           0.0000             AG WELLS      =           0.0000
      DIVERSION SEGMENTS =           0.0000        DIVERSION SEGMENTS =           0.0000
           GW IRRIGATION =    96184384.0000             GW IRRIGATION =          87.3280
           SW IRRIGATION =           0.0000             SW IRRIGATION =           0.0000
        SYSTEM LOSSES GW =           0.0000          SYSTEM LOSSES GW =           0.0000
        SYSTEM LOSSES SW =           0.0000          SYSTEM LOSSES SW =           0.0000

               TOTAL OUT =    96184384.0000                 TOTAL OUT =          87.3280

                IN - OUT =           0.0000                  IN - OUT =           0.0000

     PERCENT DISCREPANCY =           0.00         PERCENT DISCREPANCY =           0.00



1
  VOLUMETRIC BUDGET FOR ENTIRE MODEL AT END OF TIME STEP    1, STRESS PERIOD   8
  ------------------------------------------------------------------------------

     CUMULATIVE VOLUMES      L**3       RATES FOR THIS TIME STEP      L**3/T
     ------------------                 ------------------------

           IN:                                      IN:
           ---                                      ---
             STORAGE     =   102173624.0000               STORAGE     =          88.4105
       CONSTANT HEAD     =           0.0000         CONSTANT HEAD     =           0.0000
     HEAD DEP BOUNDS     =     4554132.0000       HEAD DEP BOUNDS     =           0.2855
      STREAM LEAKAGE     =   203367344.0000        STREAM LEAKAGE     =          13.2645
        UZF RECHARGE     =       73223.9531          UZF RECHARGE     =           0.0000
               GW ET     =           0.0000                 GW ET     =           0.0000
     SURFACE LEAKAGE     =           0.0000       SURFACE LEAKAGE     =           0.0000
           AG WELLS      =           0.0000             AG WELLS      =           0.0000

                TOTAL IN =   310168320.0000                  TOTAL IN =         101.9604

          OUT:                                     OUT:
          ----                                     ----
             STORAGE     =    41894324.0000               STORAGE     =           1.5044
       CONSTANT HEAD     =           0.0000         CONSTANT HEAD     =           0.0000
     HEAD DEP BOUNDS     =     4700376.5000       HEAD DEP BOUNDS     =           0.2997
      STREAM LEAKAGE     =   161224080.0000        STREAM LEAKAGE     =           9.9973
        UZF RECHARGE     =           0.0000          UZF RECHARGE     =           0.0000
               GW ET     =     6169071.5000                 GW ET     =           2.8299
     SURFACE LEAKAGE     =           0.0000       SURFACE LEAKAGE     =           0.0000
           AG WELLS      =    96184384.0000             AG WELLS      =          87.3280

               TOTAL OUT =   310172224.0000                 TOTAL OUT =         101.9593

                IN - OUT =       -3904.0000                  IN - OUT =       1.1826E-03

     PERCENT DISCREPANCY =          -0.00         PERCENT DISCREPANCY =           0.00






         TIME SUMMARY AT END OF TIME STEP    1 IN STRESS PERIOD    8
                    SECONDS     MINUTES      HOURS       DAYS        YEARS
                    -----------------------------------------------------------
   TIME STEP LENGTH  87667.      1461.1      24.352      1.0147     2.77799E-03
 STRESS PERIOD TIME  87667.      1461.1      24.352      1.0147     2.77799E-03
         TOTAL TIME 1.59541E+07 2.65901E+05  4431.7      184.65     0.50555    
1
 
 SOLVING FOR HEAD 
                                                   Max.-Head-Change                         Max.-Flux-Residual
  Residual-Control   Outer-Iter.   Inner-Iter.     Column Row Layer    Maximum-Head-Change  Column Row Layer    Maximum-Flux-Residual          L2-NORM 
          0                 1           2             5    8     1       0.4209583159E-01       5    8    1         0.2297248483E+01      0.5508986262E+01
          0                 2           2             4    7     1      -0.1885717120E+00       5    8    1        -0.1022050188E+02      0.2493602210E+02
          0                 3           2             4    7     1      -0.1796334132E-02       4    7    1        -0.9654716426E-01      0.2270264144E+00
          0                 4           2             4    7     1      -0.1189749786E-01       5    8    1        -0.6390747288E+00      0.1564914886E+01
          0                 5           2             4    7     1      -0.8928636835E-02       4    7    1        -0.4792337175E+00      0.1173840650E+01
          0                 6           2             4    7     1      -0.7372091420E-02       5    8    1        -0.3956925879E+00      0.9692358750E+00
          0                 7           2             4    7     1      -0.6079783480E-02       5    8    1        -0.3263236247E+00      0.7993209320E+00
          0                 8           2             4    7     1      -0.5042640248E-02       5    8    1        -0.2706540225E+00      0.6629596263E+00
          0                 9           2             4    7     1      -0.4198716068E-02       5    8    1        -0.2253558726E+00      0.5520030693E+00
          0                10           2             4    7     1      -0.3507021612E-02       5    8    1        -0.1882290784E+00      0.4610620072E+00
                                                   Max.-Head-Change                         Max.-Flux-Residual
  Residual-Control   Outer-Iter.   Inner-Iter.     Column Row Layer    Maximum-Head-Change  Column Row Layer    Maximum-Flux-Residual          L2-NORM 
          0                11           2             4    7     1      -0.2936685053E-02       5    8    1        -0.1576164540E+00      0.3860772230E+00
          0                12           2             4    7     1      -0.2464157434E-02       5    8    1        -0.1322539169E+00      0.3239523817E+00
          0                13           2             4    7     1      -0.2071133976E-02       5    8    1        -0.1111588902E+00      0.2722806891E+00
          0                14           2             4    7     1      -0.1743189326E-02       5    8    1        -0.9355704314E-01      0.2291654441E+00
          0                15           2             4    7     1      -0.1468860315E-02       5    8    1        -0.7883305384E-01      0.1930994326E+00
          0                16           2             4    7     1      -0.1238892835E-02       5    8    1        -0.6649018188E-01      0.1628659029E+00
          0                17           2             4    7     1      -0.1045743764E-02       5    8    1        -0.5612353163E-01      0.1374730743E+00
          0                18           2             4    7     1      -0.8832782441E-03       5    8    1        -0.4740380164E-01      0.1161143320E+00
          0                19           2             4    7     1      -0.7464710471E-03       5    8    1        -0.4006125389E-01      0.9812896007E-01
          0                20           2             4    7     1      -0.6311609580E-03       5    8    1        -0.3387252951E-01      0.8296984719E-01
                                                   Max.-Head-Change                         Max.-Flux-Residual
  Residual-Control   Outer-Iter.   Inner-Iter.     Column Row Layer    Maximum-Head-Change  Column Row Layer    Maximum-Flux-Residual          L2-NORM 
          0                21           2             4    7     1      -0.5338725208E-03       5    8    1        -0.2865108051E-01      0.7018004901E-01
          0                22           2             4    7     1      -0.4517219214E-03       5    8    1        -0.2424211682E-01      0.5938041161E-01
          0                23           2             4    7     1      -0.3823169649E-03       5    8    1        -0.2051723714E-01      0.5025641945E-01
          0                24           2             4    7     1      -0.3236396903E-03       5    8    1        -0.1736812844E-01      0.4254276269E-01
          0                25           2             4    7     1      -0.2740368428E-03       5    8    1        -0.1470605335E-01      0.3602208160E-01
          0                26           2             4    7     1      -0.2320783669E-03       5    8    1        -0.1245425574E-01      0.3050636410E-01
          0                27           2             4    7     1      -0.1965673424E-03       5    8    1        -0.1054849310E-01      0.2583824990E-01
          0                28           2             4    7     1      -0.1665037388E-03       5    8    1        -0.8935091117E-02      0.2188626524E-01
          0                29           2             4    7     1      -0.1410514208E-03       5    8    1        -0.7569172448E-02      0.1854048429E-01
          0                30           2             4    7     1      -0.1195049199E-03       5    8    1        -0.6412873281E-02      0.1570816058E-01
                                                   Max.-Head-Change                         Max.-Flux-Residual
  Residual-Control   Outer-Iter.   Inner-Iter.     Column Row Layer    Maximum-Head-Change  Column Row Layer    Maximum-Flux-Residual          L2-NORM 
          0                31           1             4    7     1      -0.1012562221E-03       5    8    1        -0.5433560729E-02      0.1330936090E-01
          0                32           1             4    7     1      -0.8579709754E-04       5    6    1        -0.4603959979E-02      0.1127727132E-01

    ------------------------------------------------
       NWT REQUIRED           32 OUTER ITERATIONS 
       AND A TOTAL OF         62 INNER ITERATIONS.
    ------------------------------------------------

 NO OUTPUT CONTROL FOR STRESS PERIOD    8   TIME STEP    2
 
 SOLVING FOR HEAD 
                                                   Max.-Head-Change                         Max.-Flux-Residual
  Residual-Control   Outer-Iter.   Inner-Iter.     Column Row Layer    Maximum-Head-Change  Column Row Layer    Maximum-Flux-Residual          L2-NORM 
          0                 1           2             5    8     1       0.4800781784E-01       5    8    1         0.2622731354E+01      0.6116790600E+01
          0                 2           2             4    7     1      -0.1887342977E+00       5    8    1        -0.1025304581E+02      0.2498999548E+02
          0                 3           2             4    7     1      -0.1784993879E-02       4    7    1        -0.9596988126E-01      0.2234958975E+00
          0                 4           2             4    7     1      -0.1189832748E-01       5    8    1        -0.6392365210E+00      0.1565180535E+01
          0                 5           2             4    7     1      -0.8928607710E-02       4    7    1        -0.4792308972E+00      0.1173821483E+01
          0                 6           2             4    7     1      -0.7372117191E-02       5    8    1        -0.3956934061E+00      0.9692369137E+00
          0                 7           2             4    7     1      -0.6079801249E-02       5    8    1        -0.3263235677E+00      0.7993205932E+00
          0                 8           2             4    7     1      -0.5042655230E-02       5    8    1        -0.2706540280E+00      0.6629594322E+00
          0                 9           2             4    7     1      -0.4198728525E-02       5    8    1        -0.2253558733E+00      0.5520029021E+00
          0                10           2             4    7     1      -0.3507032019E-02       5    8    1        -0.1882290793E+00      0.4610618684E+00
                                                   Max.-Head-Change                         Max.-Flux-Residual
  Residual-Control   Outer-Iter.   Inner-Iter.     Column Row Layer    Maximum-Head-Change  Column Row Layer    Maximum-Flux-Residual          L2-NORM 
          0                11           2             4    7     1      -0.2936693767E-02       5    8    1        -0.1576164547E+00      0.3860771070E+00
          0                12           2             4    7     1      -0.2464164745E-02       5    8    1        -0.1322539175E+00      0.3239522846E+00
          0                13           2             4    7     1      -0.2071140122E-02       5    8    1        -0.1111588907E+00      0.2722806077E+00
          0                14           2             4    7     1      -0.1743194498E-02       5    8    1        -0.9355704356E-01      0.2291653756E+00
          0                15           2             4    7     1      -0.1468864673E-02       5    8    1        -0.7883305420E-01      0.1930993750E+00
          0                16           2             4    7     1      -0.1238896511E-02       5    8    1        -0.6649018219E-01      0.1628658544E+00
          0                17           2             4    7     1      -0.1045746867E-02       5    8    1        -0.5612353188E-01      0.1374730334E+00
          0                18           2             4    7     1      -0.8832808652E-03       5    8    1        -0.4740380184E-01      0.1161142974E+00
          0                19           2             4    7     1      -0.7464732625E-03       5    8    1        -0.4006125407E-01      0.9812893088E-01
          0                20           2             4    7     1      -0.6311628305E-03       5    8    1        -0.3387252968E-01      0.8296982251E-01
                                                   Max.-Head-Change                         Max.-Flux-Residual
  Residual-Control   Outer-Iter.   Inner-Iter.     Column Row Layer    Maximum-Head-Change  Column Row Layer    Maximum-Flux-Residual          L2-NORM 
          0                21           2             4    7     1      -0.5338741048E-03       5    8    1        -0.2865108064E-01      0.7018002818E-01
          0                22           2             4    7     1      -0.4517232623E-03       5    8    1        -0.2424211693E-01      0.5938039398E-01
          0                23           2             4    7     1      -0.3823180992E-03       5    8    1        -0.2051723724E-01      0.5025640452E-01
          0                24           2             4    7     1      -0.3236406507E-03       5    8    1        -0.1736812851E-01      0.4254275006E-01
          0                25           2             4    7     1      -0.2740376561E-03       5    8    1        -0.1470605342E-01      0.3602207092E-01
          0                26           2             4    7     1      -0.2320790557E-03       5    8    1        -0.1245425581E-01      0.3050635508E-01
          0                27           2             4    7     1      -0.1965679256E-03       5    8    1        -0.1054849314E-01      0.2583824223E-01
          0                28           2             4    7     1      -0.1665042328E-03       5    8    1        -0.8935091142E-02      0.2188625876E-01
          0                29           2             4    7     1      -0.1410518395E-03       5    8    1        -0.7569172481E-02      0.1854047878E-01
          0                30           2             4    7     1      -0.1195052743E-03       5    8    1        -0.6412873304E-02      0.1570815593E-01
                                                   Max.-Head-Change                         Max.-Flux-Residual
  Residual-Control   Outer-Iter.   Inner-Iter.     Column Row Layer    Maximum-Head-Change  Column Row Layer    Maximum-Flux-Residual          L2-NORM 
          0                31           1             4    7     1      -0.1012565225E-03       5    8    1        -0.5433560756E-02      0.1330935697E-01
          0                32           1             4    7     1      -0.8579735246E-04       5    6    1        -0.4603959987E-02      0.1127726800E-01

    ------------------------------------------------
       NWT REQUIRED           32 OUTER ITERATIONS 
       AND A TOTAL OF         62 INNER ITERATIONS.
    ------------------------------------------------

 NO OUTPUT CONTROL FOR STRESS PERIOD    8   TIME STEP    3
 
 SOLVING FOR HEAD 
                                                   Max.-Head-Change                         Max.-Flux-Residual
  Residual-Control   Outer-Iter.   Inner-Iter.     Column Row Layer    Maximum-Head-Change  Column Row Layer    Maximum-Flux-Residual          L2-NORM 
          0                 1           2             5    8     1       0.5359323861E-01       5    8    1         0.2929946461E+01      0.6741605965E+01
          0                 2           2             4    7     1      -0.1889039102E+00       5    8    1        -0.1028376673E+02      0.2504226497E+02
          0                 3           2             4    7     1      -0.1773164777E-02       4    7    1        -0.9536367262E-01      0.2201943946E+00
          0                 4           2             4    7     1      -0.1189919352E-01       5    8    1        -0.6393892156E+00      0.1565436827E+01
          0                 5           2             4    7     1      -0.8928577816E-02       4    7    1        -0.4792279348E+00      0.1173802860E+01
          0                 6           2             4    7     1      -0.7372144475E-02       5    8    1        -0.3956941780E+00      0.9692378021E+00
          0                 7           2             4    7     1      -0.6079820114E-02       5    8    1        -0.3263235139E+00      0.7993201747E+00
          0                 8           2             4    7     1      -0.5042671133E-02       5    8    1        -0.2706540331E+00      0.6629591691E+00
          0                 9           2             4    7     1      -0.4198741749E-02       5    8    1        -0.2253558740E+00      0.5520026779E+00
          0                10           2             4    7     1      -0.3507043066E-02       5    8    1        -0.1882290801E+00      0.4610616821E+00
                                                   Max.-Head-Change                         Max.-Flux-Residual
  Residual-Control   Outer-Iter.   Inner-Iter.     Column Row Layer    Maximum-Head-Change  Column Row Layer    Maximum-Flux-Residual          L2-NORM 
          0                11           2             4    7     1      -0.2936703018E-02       5    8    1        -0.1576164554E+00      0.3860769514E+00
          0                12           2             4    7     1      -0.2464172507E-02       5    8    1        -0.1322539181E+00      0.3239521543E+00
          0                13           2             4    7     1      -0.2071146646E-02       5    8    1        -0.1111588912E+00      0.2722804983E+00
          0                14           2             4    7     1      -0.1743199989E-02       5    8    1        -0.9355704397E-01      0.2291652837E+00
          0                15           2             4    7     1      -0.1468869300E-02       5    8    1        -0.7883305454E-01      0.1930992977E+00
          0                16           2             4    7     1      -0.1238900414E-02       5    8    1        -0.6649018247E-01      0.1628657892E+00
          0                17           2             4    7     1      -0.1045750161E-02       5    8    1        -0.5612353211E-01      0.1374729784E+00
          0                18           2             4    7     1      -0.8832836469E-03       5    8    1        -0.4740380206E-01      0.1161142510E+00
          0                19           2             4    7     1      -0.7464756134E-03       5    8    1        -0.4006125424E-01      0.9812889173E-01
          0                20           2             4    7     1      -0.6311648190E-03       5    8    1        -0.3387252981E-01      0.8296978942E-01
                                                   Max.-Head-Change                         Max.-Flux-Residual
  Residual-Control   Outer-Iter.   Inner-Iter.     Column Row Layer    Maximum-Head-Change  Column Row Layer    Maximum-Flux-Residual          L2-NORM 
          0                21           2             4    7     1      -0.5338757864E-03       5    8    1        -0.2865108076E-01      0.7018000018E-01
          0                22           2             4    7     1      -0.4517246849E-03       5    8    1        -0.2424211704E-01      0.5938037031E-01
          0                23           2             4    7     1      -0.3823193038E-03       5    8    1        -0.2051723733E-01      0.5025638450E-01
          0                24           2             4    7     1      -0.3236416698E-03       5    8    1        -0.1736812858E-01      0.4254273310E-01
          0                25           2             4    7     1      -0.2740385191E-03       5    8    1        -0.1470605349E-01      0.3602205658E-01
          0                26           2             4    7     1      -0.2320797871E-03       5    8    1        -0.1245425585E-01      0.3050634294E-01
          0                27           2             4    7     1      -0.1965685447E-03       5    8    1        -0.1054849320E-01      0.2583823195E-01
          0                28           2             4    7     1      -0.1665047568E-03       5    8    1        -0.8935091186E-02      0.2188625002E-01
          0                29           2             4    7     1      -0.1410522839E-03       5    8    1        -0.7569172518E-02      0.1854047141E-01
          0                30           2             4    7     1      -0.1195056511E-03       5    8    1        -0.6412873321E-02      0.1570814968E-01
                                                   Max.-Head-Change                         Max.-Flux-Residual
  Residual-Control   Outer-Iter.   Inner-Iter.     Column Row Layer    Maximum-Head-Change  Column Row Layer    Maximum-Flux-Residual          L2-NORM 
          0                31           1             4    7     1      -0.1012568412E-03       5    8    1        -0.5433560771E-02      0.1330935166E-01
          0                32           1             4    7     1      -0.8579762259E-04       5    6    1        -0.4603959981E-02      0.1127726350E-01

    ------------------------------------------------
       NWT REQUIRED           32 OUTER ITERATIONS 
       AND A TOTAL OF         62 INNER ITERATIONS.
    ------------------------------------------------

 NO OUTPUT CONTROL FOR STRESS PERIOD    8   TIME STEP    4
 
 SOLVING FOR HEAD 
                                                   Max.-Head-Change                         Max.-Flux-Residual
  Residual-Control   Outer-Iter.   Inner-Iter.     Column Row Layer    Maximum-Head-Change  Column Row Layer    Maximum-Flux-Residual          L2-NORM 
          0                 1           2             5    8     1       0.5887511487E-01       5    8    1         0.3220193335E+01      0.7358115569E+01
          0                 2           2             4    7     1      -0.1890797321E+00       5    8    1        -0.1031279079E+02      0.2509285747E+02
          0                 3           2             4    7     1      -0.1760903790E-02       4    7    1        -0.9473175232E-01      0.2170876772E+00
          0                 4           2             4    7     1      -0.1190009180E-01       5    8    1        -0.6395334432E+00      0.1565685227E+01
          0                 5           2             4    7     1      -0.8928547295E-02       4    7    1        -0.4792248463E+00      0.1173785338E+01
          0                 6           2             4    7     1      -0.7372173139E-02       5    8    1        -0.3956949066E+00      0.9692390478E+00
          0                 7           2             4    7     1      -0.6079839985E-02       5    8    1        -0.3263234631E+00      0.7993200876E+00
          0                 8           2             4    7     1      -0.5042687880E-02       5    8    1        -0.2706540380E+00      0.6629591769E+00
          0                 9           2             4    7     1      -0.4198755675E-02       5    8    1        -0.2253558746E+00      0.5520026786E+00
          0                10           2             4    7     1      -0.3507054698E-02       5    8    1        -0.1882290809E+00      0.4610616831E+00
                                                   Max.-Head-Change                         Max.-Flux-Residual
  Residual-Control   Outer-Iter.   Inner-Iter.     Column Row Layer    Maximum-Head-Change  Column Row Layer    Maximum-Flux-Residual          L2-NORM 
          0                11           2             4    7     1      -0.2936712758E-02       5    8    1        -0.1576164560E+00      0.3860769522E+00
          0                12           2             4    7     1      -0.2464180681E-02       5    8    1        -0.1322539186E+00      0.3239521550E+00
          0                13           2             4    7     1      -0.2071153516E-02       5    8    1        -0.1111588916E+00      0.2722804989E+00
          0                14           2             4    7     1      -0.1743205771E-02       5    8    1        -0.9355704432E-01      0.2291652842E+00
          0                15           2             4    7     1      -0.1468874172E-02       5    8    1        -0.7883305484E-01      0.1930992981E+00
          0                16           2             4    7     1      -0.1238904523E-02       5    8    1        -0.6649018273E-01      0.1628657896E+00
          0                17           2             4    7     1      -0.1045753629E-02       5    8    1        -0.5612353232E-01      0.1374729787E+00
          0                18           2             4    7     1      -0.8832865771E-03       5    8    1        -0.4740380223E-01      0.1161142513E+00
          0                19           2             4    7     1      -0.7464780896E-03       5    8    1        -0.4006125440E-01      0.9812889192E-01
          0                20           2             4    7     1      -0.6311669120E-03       5    8    1        -0.3387252994E-01      0.8296978959E-01
                                                   Max.-Head-Change                         Max.-Flux-Residual
  Residual-Control   Outer-Iter.   Inner-Iter.     Column Row Layer    Maximum-Head-Change  Column Row Layer    Maximum-Flux-Residual          L2-NORM 
          0                21           2             4    7     1      -0.5338775574E-03       5    8    1        -0.2865108085E-01      0.7018000032E-01
          0                22           2             4    7     1      -0.4517261831E-03       5    8    1        -0.2424211714E-01      0.5938037043E-01
          0                23           2             4    7     1      -0.3823205716E-03       5    8    1        -0.2051723740E-01      0.5025638461E-01
          0                24           2             4    7     1      -0.3236427436E-03       5    8    1        -0.1736812866E-01      0.4254273321E-01
          0                25           2             4    7     1      -0.2740394281E-03       5    8    1        -0.1470605355E-01      0.3602205666E-01
          0                26           2             4    7     1      -0.2320805566E-03       5    8    1        -0.1245425590E-01      0.3050634300E-01
          0                27           2             4    7     1      -0.1965691967E-03       5    8    1        -0.1054849323E-01      0.2583823201E-01
          0                28           2             4    7     1      -0.1665053096E-03       5    8    1        -0.8935091234E-02      0.2188625009E-01
          0                29           2             4    7     1      -0.1410527517E-03       5    8    1        -0.7569172553E-02      0.1854047146E-01
          0                30           2             4    7     1      -0.1195060470E-03       5    8    1        -0.6412873357E-02      0.1570814972E-01
                                                   Max.-Head-Change                         Max.-Flux-Residual
  Residual-Control   Outer-Iter.   Inner-Iter.     Column Row Layer    Maximum-Head-Change  Column Row Layer    Maximum-Flux-Residual          L2-NORM 
          0                31           1             4    7     1      -0.1012571770E-03       5    8    1        -0.5433560809E-02      0.1330935170E-01
          0                32           1             4    7     1      -0.8579790744E-04       5    6    1        -0.4603959988E-02      0.1127726356E-01

    ------------------------------------------------
       NWT REQUIRED           32 OUTER ITERATIONS 
       AND A TOTAL OF         62 INNER ITERATIONS.
    ------------------------------------------------

 OUTPUT CONTROL FOR STRESS PERIOD    8   TIME STEP    5
    PRINT BUDGET
    SAVE BUDGET
 UBDSV1 SAVING "         STORAGE" ON UNIT 102 AT TIME STEP 5, STRESS PERIOD 8
 UBDSV2 SAVING "   CONSTANT HEAD" ON UNIT 102 AT TIME STEP 5, STRESS PERIOD 8
 UBDSV1 SAVING "FLOW RIGHT FACE " ON UNIT 102 AT TIME STEP 5, STRESS PERIOD 8
 UBDSV1 SAVING "FLOW FRONT FACE " ON UNIT 102 AT TIME STEP 5, STRESS PERIOD 8

  HEAD DEP BOUNDS   PERIOD    8   STEP     5
 BOUNDARY      1   LAYER   1   ROW    13   COL     1   RATE   -0.299426    
 BOUNDARY      2   LAYER   1   ROW    14   COL     9   RATE    0.285483    



 STREAM LISTING     PERIOD      8   STEP        5

 LAYER ROW COL. STREAM  RCH.  FLOW INTO     FLOW TO   FLOW OUT OF   OVRLND.     DIRECT     STREAM       STREAM     STREAM     STREAM   STREAMBED  STREAMBED
                SEG.NO.  NO.  STRM. RCH.    AQUIFER    STRM. RCH.    RUNOFF     PRECIP       ET          HEAD       DEPTH      WIDTH   CONDCTNC.   GRADIENT

   1    1    1     1     1    7.5000E+01  4.2232E-01   7.4578E+01  0.000E+00  0.000E+00  0.000E+00  1.09475E+03  1.698E+00  1.998E+01  8.990E-02  1.566E+00
   1    2    2     1     2    7.4578E+01  6.5422E-01   7.3924E+01  0.000E+00  0.000E+00  0.000E+00  1.08975E+03  1.692E+00  1.992E+01  1.394E-01  1.564E+00
   1    3    3     1     3    7.3924E+01  5.5813E-01   7.3366E+01  0.000E+00  0.000E+00  0.000E+00  1.08410E+03  1.685E+00  1.985E+01  1.191E-01  1.562E+00
   1    3    4     1     4    7.3366E+01  5.1412E-01   7.2852E+01  0.000E+00  0.000E+00  0.000E+00  1.07909E+03  1.679E+00  1.980E+01  1.099E-01  1.560E+00
   1    4    5     2     1    7.0852E+01  4.0967E-01   7.0442E+01  0.000E+00  0.000E+00  0.000E+00  1.07419E+03  2.252E+00  1.200E+01  7.800E-02  1.751E+00
   1    5    6     2     2    7.0442E+01  3.1471E-01   7.0127E+01  0.000E+00  0.000E+00  0.000E+00  1.06875E+03  2.245E+00  1.200E+01  6.000E-02  1.748E+00
   1    6    6     2     3    7.0127E+01  3.1435E-01   6.9813E+01  0.000E+00  0.000E+00  0.000E+00  1.06403E+03  2.239E+00  1.200E+01  6.000E-02  1.746E+00
   1    7    6     2     4    6.9813E+01  3.1399E-01   6.9499E+01  0.000E+00  0.000E+00  0.000E+00  1.05931E+03  2.233E+00  1.200E+01  6.000E-02  1.744E+00
   1    8    6     2     5    6.9499E+01  3.1363E-01   6.9185E+01  0.000E+00  0.000E+00  0.000E+00  1.05459E+03  2.227E+00  1.200E+01  6.000E-02  1.742E+00
   1    3    5     3     1    2.0000E+00  2.8252E-01   1.7175E+00  0.000E+00  0.000E+00  0.000E+00  1.07555E+03  1.909E+00  9.636E+00  7.227E-02  1.955E+00
   1    3    6     3     2    1.7175E+00  2.4905E-01   1.4684E+00  0.000E+00  0.000E+00  0.000E+00  1.07264E+03  1.727E+00  8.909E+00  6.682E-02  1.864E+00
   1    3    7     3     3    1.4684E+00  1.9718E-01   1.2712E+00  0.000E+00  0.000E+00  0.000E+00  1.06987E+03  1.555E+00  8.218E+00  5.547E-02  1.777E+00
   1    4    8     3     4    1.2712E+00  2.2567E-01   1.0456E+00  0.000E+00  0.000E+00  0.000E+00  1.06682E+03  1.364E+00  7.455E+00  6.709E-02  1.682E+00
   1    5    8     3     5    1.0456E+00  1.5790E-01   8.8768E-01  0.000E+00  0.000E+00  0.000E+00  1.06362E+03  1.164E+00  6.655E+00  4.991E-02  1.582E+00
   1    6    8     3     6    8.8768E-01  5.5980E-02   8.3170E-01  0.000E+00  0.000E+00  0.000E+00  1.06158E+03  1.036E+00  6.145E+00  1.844E-02  1.518E+00
   1    5   10     4     1    1.0000E+01  9.0919E-02   9.9091E+00  0.000E+00  0.000E+00  0.000E+00  1.07836E+03  6.368E-01  1.000E+01  2.500E-02  1.212E+00
   1    5    9     4     2    9.9091E+00  1.8158E-01   9.7275E+00  0.000E+00  0.000E+00  0.000E+00  1.07154E+03  6.315E-01  1.000E+01  5.000E-02  1.211E+00
   1    6    8     4     3    9.7275E+00  1.2689E-01   9.6006E+00  0.000E+00  0.000E+00  0.000E+00  1.06381E+03  6.256E-01  1.000E+01  3.500E-02  1.209E+00
   1    6    8     5     1    1.0432E+01  2.2686E-01   1.0205E+01  0.000E+00  0.000E+00  0.000E+00  1.05868E+03  6.790E-01  1.542E+01  6.166E-02  1.226E+00
   1    7    7     5     2    1.0205E+01  2.7894E-01   9.9265E+00  0.000E+00  0.000E+00  0.000E+00  1.05417E+03  6.732E-01  1.519E+01  7.594E-02  1.224E+00
   1    8    7     5     3    9.9265E+00  1.9221E-01   9.7343E+00  0.000E+00  0.000E+00  0.000E+00  1.04992E+03  6.676E-01  1.497E+01  5.241E-02  1.223E+00
   1    8    6     5     4    9.7343E+00  1.3577E-01   9.5985E+00  0.000E+00  0.000E+00  0.000E+00  1.04691E+03  6.637E-01  1.482E+01  3.706E-02  1.221E+00
   1    9    6     6     1    7.8784E+01  3.2569E-01   7.8458E+01  0.000E+00  0.000E+00  0.000E+00  1.04516E+03  2.428E+00  1.200E+01  6.000E-02  1.809E+00
   1   10    7     6     2    7.8458E+01  3.2533E-01   7.8133E+01  0.000E+00  0.000E+00  0.000E+00  1.04060E+03  2.422E+00  1.200E+01  6.000E-02  1.807E+00
   1   11    7     6     3    7.8133E+01  3.2497E-01   7.7808E+01  0.000E+00  0.000E+00  0.000E+00  1.03605E+03  2.416E+00  1.200E+01  6.000E-02  1.805E+00
   1   12    7     6     4    7.7808E+01  3.2461E-01   7.7483E+01  0.000E+00  0.000E+00  0.000E+00  1.03150E+03  2.410E+00  1.200E+01  6.000E-02  1.803E+00
   1   13    7     6     5    7.7483E+01  2.5951E-02   7.7457E+01  0.000E+00  0.000E+00  0.000E+00  1.02832E+03  2.407E+00  1.200E+01  2.400E-02  3.604E-01
   1   14    9     7     1    1.5000E+02  1.3318E+00   1.4867E+02  0.000E+00  0.000E+00  0.000E+00  1.03987E+03  2.288E+00  5.529E+01  5.593E-01  7.937E-01
   1   13    8     7     2    1.4867E+02  1.8017E+00   1.4687E+02  0.000E+00  0.000E+00  0.000E+00  1.03478E+03  2.279E+00  5.526E+01  6.148E-01  9.769E-01
   1   13    7     7     3    1.4687E+02  1.3714E+00   1.4550E+02  0.000E+00  0.000E+00  0.000E+00  1.02969E+03  2.271E+00  5.522E+01  5.585E-01  8.185E-01
   1   13    6     8     1    2.2295E+02  1.0172E+00   2.2194E+02  0.000E+00  0.000E+00  0.000E+00  1.02514E+03  3.265E+00  4.735E+01  4.825E-01  7.028E-01
   1   13    5     8     2    2.2194E+02  1.9833E-01   2.2174E+02  0.000E+00  0.000E+00  0.000E+00  1.01889E+03  3.262E+00  4.730E+01  4.820E-01  1.372E-01
   1   13    4     8     3    2.2174E+02 -1.9497E+00   2.2369E+02  0.000E+00  0.000E+00  0.000E+00  1.01264E+03  3.267E+00  4.737E+01  4.827E+00 -1.346E-01
   1   13    3     8     4    2.2369E+02 -3.1042E+00   2.2679E+02  0.000E+00  0.000E+00  0.000E+00  1.00641E+03  3.281E+00  4.757E+01  4.848E+00 -2.135E-01
   1   13    2     8     5    2.2679E+02 -2.6097E+00   2.2940E+02  0.000E+00  0.000E+00  0.000E+00  1.00017E+03  3.296E+00  4.780E+01  4.871E+00 -1.786E-01
   1   13    1     8     6    2.2940E+02 -2.0412E+00   2.3144E+02  0.000E+00  0.000E+00  0.000E+00  9.95184E+02  3.309E+00  4.798E+01  2.933E+00 -2.319E-01



 UBDSV3 SAVING "           GW ET" ON UNIT  61 AT TIME STEP 5, STRESS PERIOD 8
 UBDSV3 SAVING "    UZF RECHARGE" ON UNIT  61 AT TIME STEP 5, STRESS PERIOD 8
 UBDSV3 SAVING " SURFACE LEAKAGE" ON UNIT  61 AT TIME STEP 5, STRESS PERIOD 8
 UBDSV3 SAVING "       HORT+DUNN" ON UNIT  61 AT TIME STEP 5, STRESS PERIOD 8
 UBDSV3 SAVING "  STORAGE CHANGE" ON UNIT  61 AT TIME STEP 5, STRESS PERIOD 8


UNSATURATED ZONE PACKAGE VOLUMETRIC BUDGET FOR  TIME STEP     5 STRESS PERIOD    8
  ------------------------------------------------------------------------------



     CUMULATIVE VOLUMES      L**3       RATES FOR THIS TIME STEP      L**3/T
     ------------------                 ------------------------

           IN:                                      IN:
           ---                                      ---
        INFILTRATION =   140625574.0003          INFILTRATION =          88.1754

          OUT:                                     OUT:
          ----                                     ----
              UZF ET =   128545994.9774                UZF ET =          60.7922
        UZF RECHARGE =       73224.0000          UZF RECHARGE =       0.0000E+00

            IN - OUT =    12006355.0229              IN - OUT =          27.3832

          STORAGE:                                 STORAGE:
          --------                                 --------
      STORAGE CHANGE =    12006354.1315        STORAGE CHANGE =          27.3832

 PERCENT DISCREPANCY IS DIFFERENCE BETWEEN IN-OUT MINUS CHANGE IN STORAGE
 DIVIDED BY THE AVERAGE OF IN AND OUT TIMES 100

 PERCENT DISCREPANCY =           0.00     PERCENT DISCREPANCY =           0.00






 

        AG WELLS          PERIOD    8   STEP   5
 AG WELL      1   LAYER   1   ROW     6   COL     4   RATE    -14.5546    
 AG WELL      2   LAYER   1   ROW     6   COL     5   RATE    -14.5546    
 AG WELL      3   LAYER   1   ROW     7   COL     4   RATE    -14.5546    
 AG WELL      4   LAYER   1   ROW     7   COL     5   RATE    -14.5546    
 AG WELL      5   LAYER   1   ROW     8   COL     4   RATE    -14.5546    
 AG WELL      6   LAYER   1   ROW     8   COL     5   RATE    -14.5546    
 
 

        GW IRRIGATION     PERIOD    8   STEP   5
 AG WELL      1   ROW     6   COL     4   RATE     14.5546    
 AG WELL      2   ROW     6   COL     5   RATE     14.5546    
 AG WELL      3   ROW     7   COL     4   RATE     14.5546    
 AG WELL      4   ROW     7   COL     5   RATE     14.5546    
 AG WELL      5   ROW     8   COL     4   RATE     14.5546    
 AG WELL      6   ROW     8   COL     5   RATE     14.5546    
 
1
  VOLUMETRIC BUDGET FOR AGRICULTURAL FIELDS AT  END OF TIME STEP    5, STRESS PERIOD   8
  ------------------------------------------------------------------------------

     CUMULATIVE VOLUMES      L**3       RATES FOR THIS TIME STEP      L**3/T
     ------------------                 ------------------------

           IN:                                      IN:
           ---                                      ---
           AG WELLS      =   126807360.0000             AG WELLS      =          87.3279
      DIVERSION SEGMENTS =           0.0000        DIVERSION SEGMENTS =           0.0000
           GW IRRIGATION =           0.0000             GW IRRIGATION =           0.0000
           SW IRRIGATION =           0.0000             SW IRRIGATION =           0.0000
        SYSTEM LOSSES GW =           0.0000          SYSTEM LOSSES GW =           0.0000
        SYSTEM LOSSES SW =           0.0000          SYSTEM LOSSES SW =           0.0000

                TOTAL IN =   126807360.0000                  TOTAL IN =          87.3279

          OUT:                                     OUT:
          ----                                     ----
           AG WELLS      =           0.0000             AG WELLS      =           0.0000
      DIVERSION SEGMENTS =           0.0000        DIVERSION SEGMENTS =           0.0000
           GW IRRIGATION =   126807360.0000             GW IRRIGATION =          87.3279
           SW IRRIGATION =           0.0000             SW IRRIGATION =           0.0000
        SYSTEM LOSSES GW =           0.0000          SYSTEM LOSSES GW =           0.0000
        SYSTEM LOSSES SW =           0.0000          SYSTEM LOSSES SW =           0.0000

               TOTAL OUT =   126807360.0000                 TOTAL OUT =          87.3279

                IN - OUT =           0.0000                  IN - OUT =           0.0000

     PERCENT DISCREPANCY =           0.00         PERCENT DISCREPANCY =           0.00



1
  VOLUMETRIC BUDGET FOR ENTIRE MODEL AT END OF TIME STEP    5, STRESS PERIOD   8
  ------------------------------------------------------------------------------

     CUMULATIVE VOLUMES      L**3       RATES FOR THIS TIME STEP      L**3/T
     ------------------                 ------------------------

           IN:                                      IN:
           ---                                      ---
             STORAGE     =   132834072.0000               STORAGE     =          87.0713
       CONSTANT HEAD     =           0.0000         CONSTANT HEAD     =           0.0000
     HEAD DEP BOUNDS     =     4654242.0000       HEAD DEP BOUNDS     =           0.2855
      STREAM LEAKAGE     =   208018544.0000        STREAM LEAKAGE     =          13.2635
        UZF RECHARGE     =       73223.9531          UZF RECHARGE     =           0.0000
               GW ET     =           0.0000                 GW ET     =           0.0000
     SURFACE LEAKAGE     =           0.0000       SURFACE LEAKAGE     =           0.0000
           AG WELLS      =           0.0000             AG WELLS      =           0.0000

                TOTAL IN =   345580096.0000                  TOTAL IN =         100.6203

          OUT:                                     OUT:
          ----                                     ----
             STORAGE     =    42409908.0000               STORAGE     =           1.4503
       CONSTANT HEAD     =           0.0000         CONSTANT HEAD     =           0.0000
     HEAD DEP BOUNDS     =     4805405.0000       HEAD DEP BOUNDS     =           0.2994
      STREAM LEAKAGE     =   164656256.0000        STREAM LEAKAGE     =           9.7047
        UZF RECHARGE     =           0.0000          UZF RECHARGE     =           0.0000
               GW ET     =     6904370.0000                 GW ET     =           1.8361
     SURFACE LEAKAGE     =           0.0000       SURFACE LEAKAGE     =           0.0000
           AG WELLS      =   126807360.0000             AG WELLS      =          87.3279

               TOTAL OUT =   345583296.0000                 TOTAL OUT =         100.6184

                IN - OUT =       -3200.0000                  IN - OUT =       1.9608E-03

     PERCENT DISCREPANCY =          -0.00         PERCENT DISCREPANCY =           0.00






         TIME SUMMARY AT END OF TIME STEP    5 IN STRESS PERIOD    8
                    SECONDS     MINUTES      HOURS       DAYS        YEARS
                    -----------------------------------------------------------
   TIME STEP LENGTH  87667.      1461.1      24.352      1.0147     2.77799E-03
 STRESS PERIOD TIME 4.38333E+05  7305.6      121.76      5.0733     1.38899E-02
         TOTAL TIME 1.63048E+07 2.71746E+05  4529.1      188.71     0.51667    
1
 
 SOLVING FOR HEAD 
                                                   Max.-Head-Change                         Max.-Flux-Residual
  Residual-Control   Outer-Iter.   Inner-Iter.     Column Row Layer    Maximum-Head-Change  Column Row Layer    Maximum-Flux-Residual          L2-NORM 
          0                 1           2             5    8     1       0.6387480740E-01       5    8    1         0.3494677167E+01      0.7956526255E+01
          0                 2           2             4    7     1      -0.1892611077E+00       5    8    1        -0.1034023852E+02      0.2514182539E+02
          0                 3           2             4    7     1      -0.1748256606E-02       4    7    1        -0.9407671026E-01      0.2141273252E+00
          0                 4           2             4    7     1      -0.1190101896E-01       5    8    1        -0.6396698060E+00      0.1565912119E+01
          0                 5           2             4    7     1      -0.8928516250E-02       4    7    1        -0.4792216443E+00      0.1173760973E+01
          0                 6           2             4    7     1      -0.7372203067E-02       5    8    1        -0.3956955952E+00      0.9692338810E+00
          0                 7           2             4    7     1      -0.6079860780E-02       5    8    1        -0.3263234151E+00      0.7993148113E+00
          0                 8           2             4    7     1      -0.5042705401E-02       5    8    1        -0.2706540425E+00      0.6629548950E+00
          0                 9           2             4    7     1      -0.4198770244E-02       5    8    1        -0.2253558751E+00      0.5519991213E+00
          0                10           2             4    7     1      -0.3507066869E-02       5    8    1        -0.1882290815E+00      0.4610587211E+00
                                                   Max.-Head-Change                         Max.-Flux-Residual
  Residual-Control   Outer-Iter.   Inner-Iter.     Column Row Layer    Maximum-Head-Change  Column Row Layer    Maximum-Flux-Residual          L2-NORM 
          0                11           2             4    7     1      -0.2936722950E-02       5    8    1        -0.1576164566E+00      0.3860744780E+00
          0                12           2             4    7     1      -0.2464189232E-02       5    8    1        -0.1322539191E+00      0.3239500831E+00
          0                13           2             4    7     1      -0.2071160703E-02       5    8    1        -0.1111588920E+00      0.2722787604E+00
          0                14           2             4    7     1      -0.1743211821E-02       5    8    1        -0.9355704465E-01      0.2291638231E+00
          0                15           2             4    7     1      -0.1468879269E-02       5    8    1        -0.7883305510E-01      0.1930980684E+00
          0                16           2             4    7     1      -0.1238908823E-02       5    8    1        -0.6649018297E-01      0.1628647535E+00
          0                17           2             4    7     1      -0.1045757258E-02       5    8    1        -0.5612353253E-01      0.1374721049E+00
          0                18           2             4    7     1      -0.8832896426E-03       5    8    1        -0.4740380240E-01      0.1161135138E+00
          0                19           2             4    7     1      -0.7464806804E-03       5    8    1        -0.4006125454E-01      0.9812826913E-01
          0                20           2             4    7     1      -0.6311691023E-03       5    8    1        -0.3387253005E-01      0.8296926330E-01
                                                   Max.-Head-Change                         Max.-Flux-Residual
  Residual-Control   Outer-Iter.   Inner-Iter.     Column Row Layer    Maximum-Head-Change  Column Row Layer    Maximum-Flux-Residual          L2-NORM 
          0                21           2             4    7     1      -0.5338794099E-03       5    8    1        -0.2865108097E-01      0.7017955543E-01
          0                22           2             4    7     1      -0.4517277512E-03       5    8    1        -0.2424211721E-01      0.5937999416E-01
          0                23           2             4    7     1      -0.3823218983E-03       5    8    1        -0.2051723747E-01      0.5025606629E-01
          0                24           2             4    7     1      -0.3236438668E-03       5    8    1        -0.1736812872E-01      0.4254246384E-01
          0                25           2             4    7     1      -0.2740403787E-03       5    8    1        -0.1470605358E-01      0.3602182866E-01
          0                26           2             4    7     1      -0.2320813626E-03       5    8    1        -0.1245425596E-01      0.3050615000E-01
          0                27           2             4    7     1      -0.1965698786E-03       5    8    1        -0.1054849326E-01      0.2583806856E-01
          0                28           2             4    7     1      -0.1665058871E-03       5    8    1        -0.8935091262E-02      0.2188611168E-01
          0                29           2             4    7     1      -0.1410532416E-03       5    8    1        -0.7569172571E-02      0.1854035425E-01
          0                30           2             4    7     1      -0.1195064617E-03       5    8    1        -0.6412873386E-02      0.1570805043E-01
                                                   Max.-Head-Change                         Max.-Flux-Residual
  Residual-Control   Outer-Iter.   Inner-Iter.     Column Row Layer    Maximum-Head-Change  Column Row Layer    Maximum-Flux-Residual          L2-NORM 
          0                31           1             4    7     1      -0.1012575286E-03       5    8    1        -0.5433560817E-02      0.1330926760E-01
          0                32           1             4    7     1      -0.8579820494E-04       5    6    1        -0.4603959956E-02      0.1127719229E-01

    ------------------------------------------------
       NWT REQUIRED           32 OUTER ITERATIONS 
       AND A TOTAL OF         62 INNER ITERATIONS.
    ------------------------------------------------

 NO OUTPUT CONTROL FOR STRESS PERIOD    8   TIME STEP    6
 
 SOLVING FOR HEAD 
                                                   Max.-Head-Change                         Max.-Flux-Residual
  Residual-Control   Outer-Iter.   Inner-Iter.     Column Row Layer    Maximum-Head-Change  Column Row Layer    Maximum-Flux-Residual          L2-NORM 
          0                 1           2             5    8     1       0.6861138332E-01       5    8    1         0.3754473998E+01      0.8533434695E+01
          0                 2           2             4    7     1      -0.1894473959E+00       5    8    1        -0.1036621753E+02      0.2518922824E+02
          0                 3           2             4    7     1      -0.1735267885E-02       4    7    1        -0.9340108500E-01      0.2112850186E+00
          0                 4           2             4    7     1      -0.1190197172E-01       5    8    1        -0.6397886920E+00      0.1566133785E+01
          0                 5           2             4    7     1      -0.8928484780E-02       4    7    1        -0.4792183411E+00      0.1173739487E+01
          0                 6           2             4    7     1      -0.7372234143E-02       5    8    1        -0.3956907649E+00      0.9692305265E+00
          0                 7           2             4    7     1      -0.6079882418E-02       5    8    1        -0.3263188935E+00      0.7993110616E+00
          0                 8           2             4    7     1      -0.5042723629E-02       5    8    1        -0.2706503498E+00      0.6629518702E+00
          0                 9           2             4    7     1      -0.4198785401E-02       5    8    1        -0.2253528091E+00      0.5519966072E+00
          0                10           2             4    7     1      -0.3507079531E-02       5    8    1        -0.1882265284E+00      0.4610566279E+00
                                                   Max.-Head-Change                         Max.-Flux-Residual
  Residual-Control   Outer-Iter.   Inner-Iter.     Column Row Layer    Maximum-Head-Change  Column Row Layer    Maximum-Flux-Residual          L2-NORM 
          0                11           2             4    7     1      -0.2936733552E-02       5    8    1        -0.1576143239E+00      0.3860727294E+00
          0                12           2             4    7     1      -0.2464198128E-02       5    8    1        -0.1322521332E+00      0.3239486189E+00
          0                13           2             4    7     1      -0.2071168181E-02       5    8    1        -0.1111573935E+00      0.2722775318E+00
          0                14           2             4    7     1      -0.1743218114E-02       5    8    1        -0.9355578525E-01      0.2291627905E+00
          0                15           2             4    7     1      -0.1468884573E-02       5    8    1        -0.7883199520E-01      0.1930971994E+00
          0                16           2             4    7     1      -0.1238913295E-02       5    8    1        -0.6648928993E-01      0.1628640213E+00
          0                17           2             4    7     1      -0.1045761034E-02       5    8    1        -0.5612277938E-01      0.1374714874E+00
          0                18           2             4    7     1      -0.8832928314E-03       5    8    1        -0.4740316674E-01      0.1161129927E+00
          0                19           2             4    7     1      -0.7464833751E-03       5    8    1        -0.4006071771E-01      0.9812782900E-01
          0                20           2             4    7     1      -0.6311713812E-03       5    8    1        -0.3387207645E-01      0.8296889142E-01
                                                   Max.-Head-Change                         Max.-Flux-Residual
  Residual-Control   Outer-Iter.   Inner-Iter.     Column Row Layer    Maximum-Head-Change  Column Row Layer    Maximum-Flux-Residual          L2-NORM 
          0                21           2             4    7     1      -0.5338813375E-03       5    8    1        -0.2865069748E-01      0.7017924102E-01
          0                22           2             4    7     1      -0.4517293818E-03       5    8    1        -0.2424179287E-01      0.5937972826E-01
          0                23           2             4    7     1      -0.3823232789E-03       5    8    1        -0.2051696310E-01      0.5025584134E-01
          0                24           2             4    7     1      -0.3236450353E-03       5    8    1        -0.1736789653E-01      0.4254227347E-01
          0                25           2             4    7     1      -0.2740413685E-03       5    8    1        -0.1470585706E-01      0.3602166755E-01
          0                26           2             4    7     1      -0.2320821997E-03       5    8    1        -0.1245408958E-01      0.3050601359E-01
          0                27           2             4    7     1      -0.1965705888E-03       5    8    1        -0.1054835238E-01      0.2583795309E-01
          0                28           2             4    7     1      -0.1665064881E-03       5    8    1        -0.8934971961E-02      0.2188601388E-01
          0                29           2             4    7     1      -0.1410537507E-03       5    8    1        -0.7569071537E-02      0.1854027141E-01
          0                30           2             4    7     1      -0.1195068933E-03       5    8    1        -0.6412787798E-02      0.1570798028E-01
                                                   Max.-Head-Change                         Max.-Flux-Residual
  Residual-Control   Outer-Iter.   Inner-Iter.     Column Row Layer    Maximum-Head-Change  Column Row Layer    Maximum-Flux-Residual          L2-NORM 
          0                31           1             4    7     1      -0.1012578940E-03       5    8    1        -0.5433488328E-02      0.1330920817E-01
          0                32           1             4    7     1      -0.8579851486E-04       5    6    1        -0.4603898116E-02      0.1127714195E-01

    ------------------------------------------------
       NWT REQUIRED           32 OUTER ITERATIONS 
       AND A TOTAL OF         62 INNER ITERATIONS.
    ------------------------------------------------

 NO OUTPUT CONTROL FOR STRESS PERIOD    8   TIME STEP    7
 
 SOLVING FOR HEAD 
                                                   Max.-Head-Change                         Max.-Flux-Residual
  Residual-Control   Outer-Iter.   Inner-Iter.     Column Row Layer    Maximum-Head-Change  Column Row Layer    Maximum-Flux-Residual          L2-NORM 
          0                 1           2             5    8     1       0.7310308964E-01       5    8    1         0.4000611901E+01      0.9088096792E+01
          0                 2           2             4    7     1      -0.1896380245E+00       5    8    1        -0.1039083063E+02      0.2523512632E+02
          0                 3           2             4    7     1      -0.1721977498E-02       4    7    1        -0.9270715415E-01      0.2085344818E+00
          0                 4           2             4    7     1      -0.1190294715E-01       5    8    1        -0.6399098790E+00      0.1566351133E+01
          0                 5           2             4    7     1      -0.8928452982E-02       4    7    1        -0.4792149481E+00      0.1173721303E+01
          0                 6           2             4    7     1      -0.7372266276E-02       5    8    1        -0.3956913664E+00      0.9692293518E+00
          0                 7           2             4    7     1      -0.6079904833E-02       5    8    1        -0.3263188509E+00      0.7993091383E+00
          0                 8           2             4    7     1      -0.5042742508E-02       5    8    1        -0.2706503529E+00      0.6629503502E+00
          0                 9           2             4    7     1      -0.4198801101E-02       5    8    1        -0.2253528089E+00      0.5519953415E+00
          0                10           2             4    7     1      -0.3507092645E-02       5    8    1        -0.1882265285E+00      0.4610555742E+00
                                                   Max.-Head-Change                         Max.-Flux-Residual
  Residual-Control   Outer-Iter.   Inner-Iter.     Column Row Layer    Maximum-Head-Change  Column Row Layer    Maximum-Flux-Residual          L2-NORM 
          0                11           2             4    7     1      -0.2936744534E-02       5    8    1        -0.1576143239E+00      0.3860718492E+00
          0                12           2             4    7     1      -0.2464207343E-02       5    8    1        -0.1322521332E+00      0.3239478818E+00
          0                13           2             4    7     1      -0.2071175926E-02       5    8    1        -0.1111573935E+00      0.2722769134E+00
          0                14           2             4    7     1      -0.1743224633E-02       5    8    1        -0.9355578526E-01      0.2291622707E+00
          0                15           2             4    7     1      -0.1468890065E-02       5    8    1        -0.7883199523E-01      0.1930967620E+00
          0                16           2             4    7     1      -0.1238917928E-02       5    8    1        -0.6648928991E-01      0.1628636527E+00
          0                17           2             4    7     1      -0.1045764944E-02       5    8    1        -0.5612277940E-01      0.1374711766E+00
          0                18           2             4    7     1      -0.8832961341E-03       5    8    1        -0.4740316677E-01      0.1161127304E+00
          0                19           2             4    7     1      -0.7464861668E-03       5    8    1        -0.4006071772E-01      0.9812760746E-01
          0                20           2             4    7     1      -0.6311737414E-03       5    8    1        -0.3387207643E-01      0.8296870421E-01
                                                   Max.-Head-Change                         Max.-Flux-Residual
  Residual-Control   Outer-Iter.   Inner-Iter.     Column Row Layer    Maximum-Head-Change  Column Row Layer    Maximum-Flux-Residual          L2-NORM 
          0                21           2             4    7     1      -0.5338833337E-03       5    8    1        -0.2865069749E-01      0.7017908276E-01
          0                22           2             4    7     1      -0.4517310713E-03       5    8    1        -0.2424179289E-01      0.5937959442E-01
          0                23           2             4    7     1      -0.3823247082E-03       5    8    1        -0.2051696311E-01      0.5025572811E-01
          0                24           2             4    7     1      -0.3236462455E-03       5    8    1        -0.1736789653E-01      0.4254217766E-01
          0                25           2             4    7     1      -0.2740423931E-03       5    8    1        -0.1470585707E-01      0.3602158645E-01
          0                26           2             4    7     1      -0.2320830677E-03       5    8    1        -0.1245408957E-01      0.3050594493E-01
          0                27           2             4    7     1      -0.1965713238E-03       5    8    1        -0.1054835239E-01      0.2583789497E-01
          0                28           2             4    7     1      -0.1665071110E-03       5    8    1        -0.8934971948E-02      0.2188596465E-01
          0                29           2             4    7     1      -0.1410542778E-03       5    8    1        -0.7569071544E-02      0.1854022974E-01
          0                30           2             4    7     1      -0.1195073401E-03       5    8    1        -0.6412787802E-02      0.1570794497E-01
                                                   Max.-Head-Change                         Max.-Flux-Residual
  Residual-Control   Outer-Iter.   Inner-Iter.     Column Row Layer    Maximum-Head-Change  Column Row Layer    Maximum-Flux-Residual          L2-NORM 
          0                31           1             4    7     1      -0.1012582731E-03       5    8    1        -0.5433488330E-02      0.1330917828E-01
          0                32           1             4    7     1      -0.8579883536E-04       5    8    1        -0.4603896640E-02      0.1127711664E-01

    ------------------------------------------------
       NWT REQUIRED           32 OUTER ITERATIONS 
       AND A TOTAL OF         62 INNER ITERATIONS.
    ------------------------------------------------

 NO OUTPUT CONTROL FOR STRESS PERIOD    8   TIME STEP    8
 
 SOLVING FOR HEAD 
                                                   Max.-Head-Change                         Max.-Flux-Residual
  Residual-Control   Outer-Iter.   Inner-Iter.     Column Row Layer    Maximum-Head-Change  Column Row Layer    Maximum-Flux-Residual          L2-NORM 
          0                 1           2             5    8     1       0.7736642567E-01       5    8    1         0.4234020917E+01      0.9620938702E+01
          0                 2           2             4    7     1      -0.1898324267E+00       5    8    1        -0.1041417084E+02      0.2527959002E+02
          0                 3           2             4    7     1      -0.1708424905E-02       4    7    1        -0.9199715082E-01      0.2058885852E+00
          0                 4           2             4    7     1      -0.1190394232E-01       5    8    1        -0.6400114583E+00      0.1566559824E+01
          0                 5           2             4    7     1      -0.8928420923E-02       4    7    1        -0.4792114760E+00      0.1173702971E+01
          0                 6           2             4    7     1      -0.7372299346E-02       4    8    1        -0.3956858755E+00      0.9692275508E+00
          0                 7           2             4    7     1      -0.6079927940E-02       4    7    1        -0.3263182755E+00      0.7993067394E+00
          0                 8           2             4    7     1      -0.5042761966E-02       4    7    1        -0.2706495651E+00      0.6629484346E+00
          0                 9           2             4    7     1      -0.4198817282E-02       4    7    1        -0.2253521770E+00      0.5519937479E+00
          0                10           2             4    7     1      -0.3507106162E-02       4    7    1        -0.1882260006E+00      0.4610542475E+00
                                                   Max.-Head-Change                         Max.-Flux-Residual
  Residual-Control   Outer-Iter.   Inner-Iter.     Column Row Layer    Maximum-Head-Change  Column Row Layer    Maximum-Flux-Residual          L2-NORM 
          0                11           2             4    7     1      -0.2936755853E-02       4    7    1        -0.1576138831E+00      0.3860707410E+00
          0                12           2             4    7     1      -0.2464216841E-02       4    7    1        -0.1322517641E+00      0.3239469538E+00
          0                13           2             4    7     1      -0.2071183908E-02       4    7    1        -0.1111570838E+00      0.2722761347E+00
          0                14           2             4    7     1      -0.1743231351E-02       4    7    1        -0.9355552505E-01      0.2291616163E+00
          0                15           2             4    7     1      -0.1468895727E-02       4    7    1        -0.7883177632E-01      0.1930962112E+00
          0                16           2             4    7     1      -0.1238922703E-02       4    7    1        -0.6648910557E-01      0.1628631887E+00
          0                17           2             4    7     1      -0.1045768975E-02       4    7    1        -0.5612262401E-01      0.1374707852E+00
          0                18           2             4    7     1      -0.8832995385E-03       4    7    1        -0.4740303569E-01      0.1161124000E+00
          0                19           2             4    7     1      -0.7464890437E-03       4    7    1        -0.4006060710E-01      0.9812732860E-01
          0                20           2             4    7     1      -0.6311761743E-03       4    7    1        -0.3387198304E-01      0.8296846856E-01
                                                   Max.-Head-Change                         Max.-Flux-Residual
  Residual-Control   Outer-Iter.   Inner-Iter.     Column Row Layer    Maximum-Head-Change  Column Row Layer    Maximum-Flux-Residual          L2-NORM 
          0                21           2             4    7     1      -0.5338853915E-03       4    7    1        -0.2865061856E-01      0.7017888359E-01
          0                22           2             4    7     1      -0.4517328120E-03       4    7    1        -0.2424172618E-01      0.5937942599E-01
          0                23           2             4    7     1      -0.3823261819E-03       4    7    1        -0.2051690671E-01      0.5025558575E-01
          0                24           2             4    7     1      -0.3236474929E-03       4    7    1        -0.1736784886E-01      0.4254205711E-01
          0                25           2             4    7     1      -0.2740434495E-03       4    7    1        -0.1470581674E-01      0.3602148437E-01
          0                26           2             4    7     1      -0.2320839621E-03       4    7    1        -0.1245405545E-01      0.3050585847E-01
          0                27           2             4    7     1      -0.1965720813E-03       4    7    1        -0.1054832354E-01      0.2583782176E-01
          0                28           2             4    7     1      -0.1665077529E-03       4    7    1        -0.8934947542E-02      0.2188590313E-01
          0                29           2             4    7     1      -0.1410548216E-03       4    7    1        -0.7569050872E-02      0.1854017742E-01
          0                30           2             4    7     1      -0.1195078007E-03       4    7    1        -0.6412770300E-02      0.1570790056E-01
                                                   Max.-Head-Change                         Max.-Flux-Residual
  Residual-Control   Outer-Iter.   Inner-Iter.     Column Row Layer    Maximum-Head-Change  Column Row Layer    Maximum-Flux-Residual          L2-NORM 
          0                31           1             4    7     1      -0.1012586631E-03       4    7    1        -0.5433473526E-02      0.1330914061E-01
          0                32           1             4    7     1      -0.8579916645E-04       4    7    1        -0.4603884100E-02      0.1127708572E-01

    ------------------------------------------------
       NWT REQUIRED           32 OUTER ITERATIONS 
       AND A TOTAL OF         62 INNER ITERATIONS.
    ------------------------------------------------

 NO OUTPUT CONTROL FOR STRESS PERIOD    8   TIME STEP    9
 
 SOLVING FOR HEAD 
                                                   Max.-Head-Change                         Max.-Flux-Residual
  Residual-Control   Outer-Iter.   Inner-Iter.     Column Row Layer    Maximum-Head-Change  Column Row Layer    Maximum-Flux-Residual          L2-NORM 
          0                 1           2             5    8     1       0.8141674075E-01       5    8    1         0.4455565096E+01      0.1013271816E+02
          0                 2           2             5    7     1      -0.1900333369E+00       5    8    1        -0.1043632456E+02      0.2532266934E+02
          0                 3           2             4    7     1      -0.1694645559E-02       4    7    1        -0.9127311218E-01      0.2033412774E+00
          0                 4           2             4    7     1      -0.1190495463E-01       5    8    1        -0.6401194717E+00      0.1566767203E+01
          0                 5           2             4    7     1      -0.8928388690E-02       4    7    1        -0.4792079350E+00      0.1173688493E+01
          0                 6           2             4    7     1      -0.7372333267E-02       4    8    1        -0.3956862645E+00      0.9692285614E+00
          0                 7           2             4    7     1      -0.6079951680E-02       4    7    1        -0.3263182580E+00      0.7993066671E+00
          0                 8           2             4    7     1      -0.5042781955E-02       4    7    1        -0.2706495662E+00      0.6629484384E+00
          0                 9           2             4    7     1      -0.4198833904E-02       4    7    1        -0.2253521768E+00      0.5519937466E+00
          0                10           2             4    7     1      -0.3507120048E-02       4    7    1        -0.1882260005E+00      0.4610542467E+00
                                                   Max.-Head-Change                         Max.-Flux-Residual
  Residual-Control   Outer-Iter.   Inner-Iter.     Column Row Layer    Maximum-Head-Change  Column Row Layer    Maximum-Flux-Residual          L2-NORM 
          0                11           2             4    7     1      -0.2936767480E-02       4    7    1        -0.1576138830E+00      0.3860707403E+00
          0                12           2             4    7     1      -0.2464226597E-02       4    7    1        -0.1322517640E+00      0.3239469532E+00
          0                13           2             4    7     1      -0.2071192109E-02       4    7    1        -0.1111570838E+00      0.2722761342E+00
          0                14           2             4    7     1      -0.1743238253E-02       4    7    1        -0.9355552501E-01      0.2291616159E+00
          0                15           2             4    7     1      -0.1468901543E-02       4    7    1        -0.7883177629E-01      0.1930962109E+00
          0                16           2             4    7     1      -0.1238927608E-02       4    7    1        -0.6648910556E-01      0.1628631884E+00
          0                17           2             4    7     1      -0.1045773116E-02       4    7    1        -0.5612262400E-01      0.1374707850E+00
          0                18           2             4    7     1      -0.8833030357E-03       4    7    1        -0.4740303567E-01      0.1161123998E+00
          0                19           2             4    7     1      -0.7464919994E-03       4    7    1        -0.4006060708E-01      0.9812732832E-01
          0                20           2             4    7     1      -0.6311786732E-03       4    7    1        -0.3387198301E-01      0.8296846835E-01
                                                   Max.-Head-Change                         Max.-Flux-Residual
  Residual-Control   Outer-Iter.   Inner-Iter.     Column Row Layer    Maximum-Head-Change  Column Row Layer    Maximum-Flux-Residual          L2-NORM 
          0                21           2             4    7     1      -0.5338875052E-03       4    7    1        -0.2865061854E-01      0.7017888334E-01
          0                22           2             4    7     1      -0.4517346008E-03       4    7    1        -0.2424172618E-01      0.5937942578E-01
          0                23           2             4    7     1      -0.3823276953E-03       4    7    1        -0.2051690669E-01      0.5025558543E-01
          0                24           2             4    7     1      -0.3236487741E-03       4    7    1        -0.1736784885E-01      0.4254205694E-01
          0                25           2             4    7     1      -0.2740445346E-03       4    7    1        -0.1470581675E-01      0.3602148429E-01
          0                26           2             4    7     1      -0.2320848814E-03       4    7    1        -0.1245405546E-01      0.3050585843E-01
          0                27           2             4    7     1      -0.1965728592E-03       4    7    1        -0.1054832351E-01      0.2583782170E-01
          0                28           2             4    7     1      -0.1665084121E-03       4    7    1        -0.8934947532E-02      0.2188590261E-01
          0                29           2             4    7     1      -0.1410553802E-03       4    7    1        -0.7569050875E-02      0.1854017717E-01
          0                30           2             4    7     1      -0.1195082738E-03       4    7    1        -0.6412770292E-02      0.1570790046E-01
                                                   Max.-Head-Change                         Max.-Flux-Residual
  Residual-Control   Outer-Iter.   Inner-Iter.     Column Row Layer    Maximum-Head-Change  Column Row Layer    Maximum-Flux-Residual          L2-NORM 
          0                31           1             4    7     1      -0.1012590641E-03       4    7    1        -0.5433473526E-02      0.1330914055E-01
          0                32           1             4    7     1      -0.8579950593E-04       4    7    1        -0.4603884099E-02      0.1127708468E-01

    ------------------------------------------------
       NWT REQUIRED           32 OUTER ITERATIONS 
       AND A TOTAL OF         62 INNER ITERATIONS.
    ------------------------------------------------

 OUTPUT CONTROL FOR STRESS PERIOD    8   TIME STEP   10
    PRINT BUDGET
    SAVE BUDGET
 UBDSV1 SAVING "         STORAGE" ON UNIT 102 AT TIME STEP 10, STRESS PERIOD 8
 UBDSV2 SAVING "   CONSTANT HEAD" ON UNIT 102 AT TIME STEP 10, STRESS PERIOD 8
 UBDSV1 SAVING "FLOW RIGHT FACE " ON UNIT 102 AT TIME STEP 10, STRESS PERIOD 8
 UBDSV1 SAVING "FLOW FRONT FACE " ON UNIT 102 AT TIME STEP 10, STRESS PERIOD 8

  HEAD DEP BOUNDS   PERIOD    8   STEP    10
 BOUNDARY      1   LAYER   1   ROW    13   COL     1   RATE   -0.299185    
 BOUNDARY      2   LAYER   1   ROW    14   COL     9   RATE    0.285481    



 STREAM LISTING     PERIOD      8   STEP       10

 LAYER ROW COL. STREAM  RCH.  FLOW INTO     FLOW TO   FLOW OUT OF   OVRLND.     DIRECT     STREAM       STREAM     STREAM     STREAM   STREAMBED  STREAMBED
                SEG.NO.  NO.  STRM. RCH.    AQUIFER    STRM. RCH.    RUNOFF     PRECIP       ET          HEAD       DEPTH      WIDTH   CONDCTNC.   GRADIENT

   1    1    1     1     1    7.5000E+01  4.2232E-01   7.4578E+01  0.000E+00  0.000E+00  0.000E+00  1.09475E+03  1.698E+00  1.998E+01  8.990E-02  1.566E+00
   1    2    2     1     2    7.4578E+01  6.5422E-01   7.3924E+01  0.000E+00  0.000E+00  0.000E+00  1.08975E+03  1.692E+00  1.992E+01  1.394E-01  1.564E+00
   1    3    3     1     3    7.3924E+01  5.5813E-01   7.3366E+01  0.000E+00  0.000E+00  0.000E+00  1.08410E+03  1.685E+00  1.985E+01  1.191E-01  1.562E+00
   1    3    4     1     4    7.3366E+01  5.1412E-01   7.2852E+01  0.000E+00  0.000E+00  0.000E+00  1.07909E+03  1.679E+00  1.980E+01  1.099E-01  1.560E+00
   1    4    5     2     1    7.0852E+01  4.0967E-01   7.0442E+01  0.000E+00  0.000E+00  0.000E+00  1.07419E+03  2.252E+00  1.200E+01  7.800E-02  1.751E+00
   1    5    6     2     2    7.0442E+01  3.1471E-01   7.0127E+01  0.000E+00  0.000E+00  0.000E+00  1.06875E+03  2.245E+00  1.200E+01  6.000E-02  1.748E+00
   1    6    6     2     3    7.0127E+01  3.1435E-01   6.9813E+01  0.000E+00  0.000E+00  0.000E+00  1.06403E+03  2.239E+00  1.200E+01  6.000E-02  1.746E+00
   1    7    6     2     4    6.9813E+01  3.1399E-01   6.9499E+01  0.000E+00  0.000E+00  0.000E+00  1.05931E+03  2.233E+00  1.200E+01  6.000E-02  1.744E+00
   1    8    6     2     5    6.9499E+01  3.1363E-01   6.9185E+01  0.000E+00  0.000E+00  0.000E+00  1.05459E+03  2.227E+00  1.200E+01  6.000E-02  1.742E+00
   1    3    5     3     1    2.0000E+00  2.8252E-01   1.7175E+00  0.000E+00  0.000E+00  0.000E+00  1.07555E+03  1.909E+00  9.636E+00  7.227E-02  1.955E+00
   1    3    6     3     2    1.7175E+00  2.4905E-01   1.4684E+00  0.000E+00  0.000E+00  0.000E+00  1.07264E+03  1.727E+00  8.909E+00  6.682E-02  1.864E+00
   1    3    7     3     3    1.4684E+00  1.9718E-01   1.2712E+00  0.000E+00  0.000E+00  0.000E+00  1.06987E+03  1.555E+00  8.218E+00  5.547E-02  1.777E+00
   1    4    8     3     4    1.2712E+00  2.2567E-01   1.0456E+00  0.000E+00  0.000E+00  0.000E+00  1.06682E+03  1.364E+00  7.455E+00  6.709E-02  1.682E+00
   1    5    8     3     5    1.0456E+00  1.5790E-01   8.8768E-01  0.000E+00  0.000E+00  0.000E+00  1.06362E+03  1.164E+00  6.655E+00  4.991E-02  1.582E+00
   1    6    8     3     6    8.8768E-01  5.5980E-02   8.3170E-01  0.000E+00  0.000E+00  0.000E+00  1.06158E+03  1.036E+00  6.145E+00  1.844E-02  1.518E+00
   1    5   10     4     1    1.0000E+01  9.0919E-02   9.9091E+00  0.000E+00  0.000E+00  0.000E+00  1.07836E+03  6.368E-01  1.000E+01  2.500E-02  1.212E+00
   1    5    9     4     2    9.9091E+00  1.8158E-01   9.7275E+00  0.000E+00  0.000E+00  0.000E+00  1.07154E+03  6.315E-01  1.000E+01  5.000E-02  1.211E+00
   1    6    8     4     3    9.7275E+00  1.2689E-01   9.6006E+00  0.000E+00  0.000E+00  0.000E+00  1.06381E+03  6.256E-01  1.000E+01  3.500E-02  1.209E+00
   1    6    8     5     1    1.0432E+01  2.2686E-01   1.0205E+01  0.000E+00  0.000E+00  0.000E+00  1.05868E+03  6.790E-01  1.542E+01  6.166E-02  1.226E+00
   1    7    7     5     2    1.0205E+01  2.7894E-01   9.9265E+00  0.000E+00  0.000E+00  0.000E+00  1.05417E+03  6.732E-01  1.519E+01  7.594E-02  1.224E+00
   1    8    7     5     3    9.9265E+00  1.9221E-01   9.7343E+00  0.000E+00  0.000E+00  0.000E+00  1.04992E+03  6.676E-01  1.497E+01  5.241E-02  1.223E+00
   1    8    6     5     4    9.7343E+00  1.3577E-01   9.5985E+00  0.000E+00  0.000E+00  0.000E+00  1.04691E+03  6.637E-01  1.482E+01  3.706E-02  1.221E+00
   1    9    6     6     1    7.8784E+01  3.2569E-01   7.8458E+01  0.000E+00  0.000E+00  0.000E+00  1.04516E+03  2.428E+00  1.200E+01  6.000E-02  1.809E+00
   1   10    7     6     2    7.8458E+01  3.2533E-01   7.8133E+01  0.000E+00  0.000E+00  0.000E+00  1.04060E+03  2.422E+00  1.200E+01  6.000E-02  1.807E+00
   1   11    7     6     3    7.8133E+01  3.2497E-01   7.7808E+01  0.000E+00  0.000E+00  0.000E+00  1.03605E+03  2.416E+00  1.200E+01  6.000E-02  1.805E+00
   1   12    7     6     4    7.7808E+01  3.2461E-01   7.7483E+01  0.000E+00  0.000E+00  0.000E+00  1.03150E+03  2.410E+00  1.200E+01  6.000E-02  1.803E+00
   1   13    7     6     5    7.7483E+01  2.5897E-02   7.7457E+01  0.000E+00  0.000E+00  0.000E+00  1.02832E+03  2.407E+00  1.200E+01  2.400E-02  3.597E-01
   1   14    9     7     1    1.5000E+02  1.3317E+00   1.4867E+02  0.000E+00  0.000E+00  0.000E+00  1.03987E+03  2.288E+00  5.529E+01  5.593E-01  7.937E-01
   1   13    8     7     2    1.4867E+02  1.8009E+00   1.4687E+02  0.000E+00  0.000E+00  0.000E+00  1.03478E+03  2.279E+00  5.526E+01  6.148E-01  9.765E-01
   1   13    7     7     3    1.4687E+02  1.3702E+00   1.4550E+02  0.000E+00  0.000E+00  0.000E+00  1.02969E+03  2.271E+00  5.522E+01  5.585E-01  8.178E-01
   1   13    6     8     1    2.2295E+02  1.0170E+00   2.2194E+02  0.000E+00  0.000E+00  0.000E+00  1.02514E+03  3.265E+00  4.735E+01  4.825E-01  7.026E-01
   1   13    5     8     2    2.2194E+02  1.9942E-01   2.2174E+02  0.000E+00  0.000E+00  0.000E+00  1.01889E+03  3.262E+00  4.730E+01  4.820E-01  1.379E-01
   1   13    4     8     3    2.2174E+02 -1.9212E+00   2.2366E+02  0.000E+00  0.000E+00  0.000E+00  1.01264E+03  3.267E+00  4.737E+01  4.827E+00 -1.327E-01
   1   13    3     8     4    2.2366E+02 -3.0746E+00   2.2673E+02  0.000E+00  0.000E+00  0.000E+00  1.00641E+03  3.280E+00  4.757E+01  4.847E+00 -2.114E-01
   1   13    2     8     5    2.2673E+02 -2.5694E+00   2.2930E+02  0.000E+00  0.000E+00  0.000E+00  1.00017E+03  3.296E+00  4.779E+01  4.870E+00 -1.759E-01
   1   13    1     8     6    2.2930E+02 -2.0238E+00   2.3133E+02  0.000E+00  0.000E+00  0.000E+00  9.95183E+02  3.308E+00  4.797E+01  2.933E+00 -2.300E-01



 UBDSV3 SAVING "           GW ET" ON UNIT  61 AT TIME STEP 10, STRESS PERIOD 8
 UBDSV3 SAVING "    UZF RECHARGE" ON UNIT  61 AT TIME STEP 10, STRESS PERIOD 8
 UBDSV3 SAVING " SURFACE LEAKAGE" ON UNIT  61 AT TIME STEP 10, STRESS PERIOD 8
 UBDSV3 SAVING "       HORT+DUNN" ON UNIT  61 AT TIME STEP 10, STRESS PERIOD 8
 UBDSV3 SAVING "  STORAGE CHANGE" ON UNIT  61 AT TIME STEP 10, STRESS PERIOD 8


UNSATURATED ZONE PACKAGE VOLUMETRIC BUDGET FOR  TIME STEP    10 STRESS PERIOD    8
  ------------------------------------------------------------------------------



     CUMULATIVE VOLUMES      L**3       RATES FOR THIS TIME STEP      L**3/T
     ------------------                 ------------------------

           IN:                                      IN:
           ---                                      ---
        INFILTRATION =   179275776.4797          INFILTRATION =          88.1754

          OUT:                                     OUT:
          ----                                     ----
              UZF ET =   155193219.9568                UZF ET =          60.7922
        UZF RECHARGE =       73224.0000          UZF RECHARGE =       0.0000E+00

            IN - OUT =    24009332.5229              IN - OUT =          27.3832

          STORAGE:                                 STORAGE:
          --------                                 --------
      STORAGE CHANGE =    24009330.6678        STORAGE CHANGE =          27.3832

 PERCENT DISCREPANCY IS DIFFERENCE BETWEEN IN-OUT MINUS CHANGE IN STORAGE
 DIVIDED BY THE AVERAGE OF IN AND OUT TIMES 100

 PERCENT DISCREPANCY =           0.00     PERCENT DISCREPANCY =           0.00






 

        AG WELLS          PERIOD    8   STEP  10
 AG WELL      1   LAYER   1   ROW     6   COL     4   RATE    -14.5546    
 AG WELL      2   LAYER   1   ROW     6   COL     5   RATE    -14.5546    
 AG WELL      3   LAYER   1   ROW     7   COL     4   RATE    -14.5546    
 AG WELL      4   LAYER   1   ROW     7   COL     5   RATE    -14.5546    
 AG WELL      5   LAYER   1   ROW     8   COL     4   RATE    -14.5546    
 AG WELL      6   LAYER   1   ROW     8   COL     5   RATE    -14.5546    
 
 

        GW IRRIGATION     PERIOD    8   STEP  10
 AG WELL      1   ROW     6   COL     4   RATE     14.5546    
 AG WELL      2   ROW     6   COL     5   RATE     14.5546    
 AG WELL      3   ROW     7   COL     4   RATE     14.5546    
 AG WELL      4   ROW     7   COL     5   RATE     14.5546    
 AG WELL      5   ROW     8   COL     4   RATE     14.5546    
 AG WELL      6   ROW     8   COL     5   RATE     14.5546    
 
1
  VOLUMETRIC BUDGET FOR AGRICULTURAL FIELDS AT  END OF TIME STEP   10, STRESS PERIOD   8
  ------------------------------------------------------------------------------

     CUMULATIVE VOLUMES      L**3       RATES FOR THIS TIME STEP      L**3/T
     ------------------                 ------------------------

           IN:                                      IN:
           ---                                      ---
           AG WELLS      =   165086080.0000             AG WELLS      =          87.3279
      DIVERSION SEGMENTS =           0.0000        DIVERSION SEGMENTS =           0.0000
           GW IRRIGATION =           0.0000             GW IRRIGATION =           0.0000
           SW IRRIGATION =           0.0000             SW IRRIGATION =           0.0000
        SYSTEM LOSSES GW =           0.0000          SYSTEM LOSSES GW =           0.0000
        SYSTEM LOSSES SW =           0.0000          SYSTEM LOSSES SW =           0.0000

                TOTAL IN =   165086080.0000                  TOTAL IN =          87.3279

          OUT:                                     OUT:
          ----                                     ----
           AG WELLS      =           0.0000             AG WELLS      =           0.0000
      DIVERSION SEGMENTS =           0.0000        DIVERSION SEGMENTS =           0.0000
           GW IRRIGATION =   165086080.0000             GW IRRIGATION =          87.3279
           SW IRRIGATION =           0.0000             SW IRRIGATION =           0.0000
        SYSTEM LOSSES GW =           0.0000          SYSTEM LOSSES GW =           0.0000
        SYSTEM LOSSES SW =           0.0000          SYSTEM LOSSES SW =           0.0000

               TOTAL OUT =   165086080.0000                 TOTAL OUT =          87.3279

                IN - OUT =           0.0000                  IN - OUT =           0.0000

     PERCENT DISCREPANCY =           0.00         PERCENT DISCREPANCY =           0.00



1
  VOLUMETRIC BUDGET FOR ENTIRE MODEL AT END OF TIME STEP   10, STRESS PERIOD   8
  ------------------------------------------------------------------------------

     CUMULATIVE VOLUMES      L**3       RATES FOR THIS TIME STEP      L**3/T
     ------------------                 ------------------------

           IN:                                      IN:
           ---                                      ---
             STORAGE     =   170868032.0000               STORAGE     =          86.6397
       CONSTANT HEAD     =           0.0000         CONSTANT HEAD     =           0.0000
     HEAD DEP BOUNDS     =     4779378.0000       HEAD DEP BOUNDS     =           0.2855
      STREAM LEAKAGE     =   213832096.0000        STREAM LEAKAGE     =          13.2624
        UZF RECHARGE     =       73223.9531          UZF RECHARGE     =           0.0000
               GW ET     =           0.0000                 GW ET     =           0.0000
     SURFACE LEAKAGE     =           0.0000       SURFACE LEAKAGE     =           0.0000
           AG WELLS      =           0.0000             AG WELLS      =           0.0000

                TOTAL IN =   389552704.0000                  TOTAL IN =         100.1876

          OUT:                                     OUT:
          ----                                     ----
             STORAGE     =    43027100.0000               STORAGE     =           1.3788
       CONSTANT HEAD     =           0.0000         CONSTANT HEAD     =           0.0000
     HEAD DEP BOUNDS     =     4936588.0000       HEAD DEP BOUNDS     =           0.2992
      STREAM LEAKAGE     =   168875520.0000        STREAM LEAKAGE     =           9.5890
        UZF RECHARGE     =           0.0000          UZF RECHARGE     =           0.0000
               GW ET     =     7629781.5000                 GW ET     =           1.5908
     SURFACE LEAKAGE     =           0.0000       SURFACE LEAKAGE     =           0.0000
           AG WELLS      =   165086080.0000             AG WELLS      =          87.3279

               TOTAL OUT =   389555072.0000                 TOTAL OUT =         100.1856

                IN - OUT =       -2368.0000                  IN - OUT =       1.9379E-03

     PERCENT DISCREPANCY =          -0.00         PERCENT DISCREPANCY =           0.00






         TIME SUMMARY AT END OF TIME STEP   10 IN STRESS PERIOD    8
                    SECONDS     MINUTES      HOURS       DAYS        YEARS
                    -----------------------------------------------------------
   TIME STEP LENGTH  87667.      1461.1      24.352      1.0147     2.77799E-03
 STRESS PERIOD TIME 8.76667E+05  14611.      243.52      10.147     2.77799E-02
         TOTAL TIME 1.67431E+07 2.79052E+05  4650.9      193.79     0.53056    
1
 
 SOLVING FOR HEAD 
                                                   Max.-Head-Change                         Max.-Flux-Residual
  Residual-Control   Outer-Iter.   Inner-Iter.     Column Row Layer    Maximum-Head-Change  Column Row Layer    Maximum-Flux-Residual          L2-NORM 
          0                 1           2             5    8     1       0.8526803418E-01       5    8    1         0.4666031783E+01      0.1062435063E+02
          0                 2           2             5    7     1      -0.1903250486E+00       5    8    1        -0.1045737053E+02      0.2536442559E+02
          0                 3           2             4    7     1      -0.1680673667E-02       4    7    1        -0.9053699413E-01      0.2008917481E+00
          0                 4           2             4    7     1      -0.1190598155E-01       5    8    1        -0.6402220947E+00      0.1566968184E+01
          0                 5           2             4    7     1      -0.8928356358E-02       4    7    1        -0.4792043345E+00      0.1173674460E+01
          0                 6           2             4    7     1      -0.7372367952E-02       4    8    1        -0.3956866438E+00      0.9692295412E+00
          0                 7           2             4    7     1      -0.6079975992E-02       4    7    1        -0.3263182402E+00      0.7993065972E+00
          0                 8           2             4    7     1      -0.5042802422E-02       4    7    1        -0.2706495673E+00      0.6629484422E+00
          0                 9           2             4    7     1      -0.4198850924E-02       4    7    1        -0.2253521767E+00      0.5519937454E+00
          0                10           2             4    7     1      -0.3507134265E-02       4    7    1        -0.1882260004E+00      0.4610542460E+00
                                                   Max.-Head-Change                         Max.-Flux-Residual
  Residual-Control   Outer-Iter.   Inner-Iter.     Column Row Layer    Maximum-Head-Change  Column Row Layer    Maximum-Flux-Residual          L2-NORM 
          0                11           2             4    7     1      -0.2936779386E-02       4    7    1        -0.1576138829E+00      0.3860707397E+00
          0                12           2             4    7     1      -0.2464236587E-02       4    7    1        -0.1322517639E+00      0.3239469527E+00
          0                13           2             4    7     1      -0.2071200505E-02       4    7    1        -0.1111570837E+00      0.2722761338E+00
          0                14           2             4    7     1      -0.1743245321E-02       4    7    1        -0.9355552499E-01      0.2291616156E+00
          0                15           2             4    7     1      -0.1468907497E-02       4    7    1        -0.7883177625E-01      0.1930962105E+00
          0                16           2             4    7     1      -0.1238932631E-02       4    7    1        -0.6648910555E-01      0.1628631882E+00
          0                17           2             4    7     1      -0.1045777355E-02       4    7    1        -0.5612262395E-01      0.1374707848E+00
          0                18           2             4    7     1      -0.8833066169E-03       4    7    1        -0.4740303566E-01      0.1161123997E+00
          0                19           2             4    7     1      -0.7464950252E-03       4    7    1        -0.4006060705E-01      0.9812732815E-01
          0                20           2             4    7     1      -0.6311812322E-03       4    7    1        -0.3387198301E-01      0.8296846824E-01
                                                   Max.-Head-Change                         Max.-Flux-Residual
  Residual-Control   Outer-Iter.   Inner-Iter.     Column Row Layer    Maximum-Head-Change  Column Row Layer    Maximum-Flux-Residual          L2-NORM 
          0                21           2             4    7     1      -0.5338896697E-03       4    7    1        -0.2865061853E-01      0.7017888324E-01
          0                22           2             4    7     1      -0.4517364316E-03       4    7    1        -0.2424172615E-01      0.5937942569E-01
          0                23           2             4    7     1      -0.3823292457E-03       4    7    1        -0.2051690670E-01      0.5025558535E-01
          0                24           2             4    7     1      -0.3236500862E-03       4    7    1        -0.1736784883E-01      0.4254205685E-01
          0                25           2             4    7     1      -0.2740456450E-03       4    7    1        -0.1470581672E-01      0.3602148422E-01
          0                26           2             4    7     1      -0.2320858220E-03       4    7    1        -0.1245405546E-01      0.3050585838E-01
          0                27           2             4    7     1      -0.1965736566E-03       4    7    1        -0.1054832354E-01      0.2583782166E-01
          0                28           2             4    7     1      -0.1665090872E-03       4    7    1        -0.8934947529E-02      0.2188590257E-01
          0                29           2             4    7     1      -0.1410559518E-03       4    7    1        -0.7569050866E-02      0.1854017714E-01
          0                30           2             4    7     1      -0.1195087583E-03       4    7    1        -0.6412770296E-02      0.1570790045E-01
                                                   Max.-Head-Change                         Max.-Flux-Residual
  Residual-Control   Outer-Iter.   Inner-Iter.     Column Row Layer    Maximum-Head-Change  Column Row Layer    Maximum-Flux-Residual          L2-NORM 
          0                31           1             4    7     1      -0.1012594744E-03       4    7    1        -0.5433473522E-02      0.1330914055E-01
          0                32           1             4    7     1      -0.8579985381E-04       4    7    1        -0.4603884109E-02      0.1127708466E-01

    ------------------------------------------------
       NWT REQUIRED           32 OUTER ITERATIONS 
       AND A TOTAL OF         62 INNER ITERATIONS.
    ------------------------------------------------

 NO OUTPUT CONTROL FOR STRESS PERIOD    8   TIME STEP   11
 
 SOLVING FOR HEAD 
                                                   Max.-Head-Change                         Max.-Flux-Residual
  Residual-Control   Outer-Iter.   Inner-Iter.     Column Row Layer    Maximum-Head-Change  Column Row Layer    Maximum-Flux-Residual          L2-NORM 
          0                 1           2             5    8     1       0.8893335432E-01       5    8    1         0.4866154945E+01      0.1109681616E+02
          0                 2           2             5    7     1      -0.1906107436E+00       5    8    1        -0.1047738216E+02      0.2540491240E+02
          0                 3           2             4    7     1      -0.1666541054E-02       4    7    1        -0.8979061509E-01      0.1985338736E+00
          0                 4           2             4    7     1      -0.1190702075E-01       5    8    1        -0.6403196841E+00      0.1567163043E+01
          0                 5           2             4    7     1      -0.8928323993E-02       4    7    1        -0.4792006836E+00      0.1173660855E+01
          0                 6           2             4    7     1      -0.7372403318E-02       4    8    1        -0.3956870134E+00      0.9692304912E+00
          0                 7           2             4    7     1      -0.6080000814E-02       4    7    1        -0.3263182222E+00      0.7993065294E+00
          0                 8           2             4    7     1      -0.5042823316E-02       4    7    1        -0.2706495685E+00      0.6629484459E+00
          0                 9           2             4    7     1      -0.4198868300E-02       4    7    1        -0.2253521765E+00      0.5519937443E+00
          0                10           2             4    7     1      -0.3507148780E-02       4    7    1        -0.1882260004E+00      0.4610542453E+00
                                                   Max.-Head-Change                         Max.-Flux-Residual
  Residual-Control   Outer-Iter.   Inner-Iter.     Column Row Layer    Maximum-Head-Change  Column Row Layer    Maximum-Flux-Residual          L2-NORM 
          0                11           2             4    7     1      -0.2936791539E-02       4    7    1        -0.1576138829E+00      0.3860707391E+00
          0                12           2             4    7     1      -0.2464246785E-02       4    7    1        -0.1322517639E+00      0.3239469523E+00
          0                13           2             4    7     1      -0.2071209077E-02       4    7    1        -0.1111570837E+00      0.2722761334E+00
          0                14           2             4    7     1      -0.1743252536E-02       4    7    1        -0.9355552496E-01      0.2291616152E+00
          0                15           2             4    7     1      -0.1468913576E-02       4    7    1        -0.7883177621E-01      0.1930962103E+00
          0                16           2             4    7     1      -0.1238937758E-02       4    7    1        -0.6648910550E-01      0.1628631879E+00
          0                17           2             4    7     1      -0.1045781683E-02       4    7    1        -0.5612262394E-01      0.1374707846E+00
          0                18           2             4    7     1      -0.8833102722E-03       4    7    1        -0.4740303564E-01      0.1161123995E+00
          0                19           2             4    7     1      -0.7464981154E-03       4    7    1        -0.4006060706E-01      0.9812732804E-01
          0                20           2             4    7     1      -0.6311838440E-03       4    7    1        -0.3387198298E-01      0.8296846810E-01
                                                   Max.-Head-Change                         Max.-Flux-Residual
  Residual-Control   Outer-Iter.   Inner-Iter.     Column Row Layer    Maximum-Head-Change  Column Row Layer    Maximum-Flux-Residual          L2-NORM 
          0                21           2             4    7     1      -0.5338918793E-03       4    7    1        -0.2865061852E-01      0.7017888314E-01
          0                22           2             4    7     1      -0.4517383014E-03       4    7    1        -0.2424172614E-01      0.5937942561E-01
          0                23           2             4    7     1      -0.3823308276E-03       4    7    1        -0.2051690667E-01      0.5025558528E-01
          0                24           2             4    7     1      -0.3236514257E-03       4    7    1        -0.1736784884E-01      0.4254205681E-01
          0                25           2             4    7     1      -0.2740467796E-03       4    7    1        -0.1470581673E-01      0.3602148418E-01
          0                26           2             4    7     1      -0.2320867824E-03       4    7    1        -0.1245405545E-01      0.3050585834E-01
          0                27           2             4    7     1      -0.1965744698E-03       4    7    1        -0.1054832352E-01      0.2583782163E-01
          0                28           2             4    7     1      -0.1665097765E-03       4    7    1        -0.8934947538E-02      0.2188590255E-01
          0                29           2             4    7     1      -0.1410565355E-03       4    7    1        -0.7569050859E-02      0.1854017715E-01
          0                30           2             4    7     1      -0.1195092529E-03       4    7    1        -0.6412770296E-02      0.1570790045E-01
                                                   Max.-Head-Change                         Max.-Flux-Residual
  Residual-Control   Outer-Iter.   Inner-Iter.     Column Row Layer    Maximum-Head-Change  Column Row Layer    Maximum-Flux-Residual          L2-NORM 
          0                31           1             4    7     1      -0.1012598939E-03       4    7    1        -0.5433473523E-02      0.1330914055E-01
          0                32           1             4    7     1      -0.8580020875E-04       4    7    1        -0.4603884081E-02      0.1127708467E-01

    ------------------------------------------------
       NWT REQUIRED           32 OUTER ITERATIONS 
       AND A TOTAL OF         62 INNER ITERATIONS.
    ------------------------------------------------

 NO OUTPUT CONTROL FOR STRESS PERIOD    8   TIME STEP   12
 
 SOLVING FOR HEAD 
                                                   Max.-Head-Change                         Max.-Flux-Residual
  Residual-Control   Outer-Iter.   Inner-Iter.     Column Row Layer    Maximum-Head-Change  Column Row Layer    Maximum-Flux-Residual          L2-NORM 
          0                 1           2             5    8     1       0.9242488826E-01       5    8    1         0.5056619002E+01      0.1155111034E+02
          0                 2           2             5    7     1      -0.1908904816E+00       5    8    1        -0.1049642787E+02      0.2544418402E+02
          0                 3           2             4    7     1      -0.1652275404E-02       4    7    1        -0.8903556881E-01      0.1962618377E+00
          0                 4           2             4    7     1      -0.1190807017E-01       5    8    1        -0.6404125729E+00      0.1567352053E+01
          0                 5           2             4    7     1      -0.8928291656E-02       4    7    1        -0.4791969900E+00      0.1173647657E+01
          0                 6           2             4    7     1      -0.7372439291E-02       4    8    1        -0.3956873739E+00      0.9692314130E+00
          0                 7           2             4    7     1      -0.6080026097E-02       4    7    1        -0.3263182040E+00      0.7993064638E+00
          0                 8           2             4    7     1      -0.5042844594E-02       4    7    1        -0.2706495697E+00      0.6629484496E+00
          0                 9           2             4    7     1      -0.4198885996E-02       4    7    1        -0.2253521763E+00      0.5519937433E+00
          0                10           2             4    7     1      -0.3507163562E-02       4    7    1        -0.1882260003E+00      0.4610542448E+00
                                                   Max.-Head-Change                         Max.-Flux-Residual
  Residual-Control   Outer-Iter.   Inner-Iter.     Column Row Layer    Maximum-Head-Change  Column Row Layer    Maximum-Flux-Residual          L2-NORM 
          0                11           2             4    7     1      -0.2936803917E-02       4    7    1        -0.1576138828E+00      0.3860707387E+00
          0                12           2             4    7     1      -0.2464257172E-02       4    7    1        -0.1322517639E+00      0.3239469519E+00
          0                13           2             4    7     1      -0.2071217807E-02       4    7    1        -0.1111570837E+00      0.2722761331E+00
          0                14           2             4    7     1      -0.1743259882E-02       4    7    1        -0.9355552490E-01      0.2291616149E+00
          0                15           2             4    7     1      -0.1468919767E-02       4    7    1        -0.7883177618E-01      0.1930962100E+00
          0                16           2             4    7     1      -0.1238942980E-02       4    7    1        -0.6648910549E-01      0.1628631877E+00
          0                17           2             4    7     1      -0.1045786091E-02       4    7    1        -0.5612262392E-01      0.1374707844E+00
          0                18           2             4    7     1      -0.8833139950E-03       4    7    1        -0.4740303560E-01      0.1161123993E+00
          0                19           2             4    7     1      -0.7465012612E-03       4    7    1        -0.4006060703E-01      0.9812732789E-01
          0                20           2             4    7     1      -0.6311865044E-03       4    7    1        -0.3387198298E-01      0.8296846801E-01
                                                   Max.-Head-Change                         Max.-Flux-Residual
  Residual-Control   Outer-Iter.   Inner-Iter.     Column Row Layer    Maximum-Head-Change  Column Row Layer    Maximum-Flux-Residual          L2-NORM 
          0                21           2             4    7     1      -0.5338941294E-03       4    7    1        -0.2865061851E-01      0.7017888305E-01
          0                22           2             4    7     1      -0.4517402053E-03       4    7    1        -0.2424172615E-01      0.5937942553E-01
          0                23           2             4    7     1      -0.3823324394E-03       4    7    1        -0.2051690668E-01      0.5025558523E-01
          0                24           2             4    7     1      -0.3236527899E-03       4    7    1        -0.1736784882E-01      0.4254205676E-01
          0                25           2             4    7     1      -0.2740479341E-03       4    7    1        -0.1470581671E-01      0.3602148412E-01
          0                26           2             4    7     1      -0.2320877611E-03       4    7    1        -0.1245405546E-01      0.3050585830E-01
          0                27           2             4    7     1      -0.1965752983E-03       4    7    1        -0.1054832351E-01      0.2583782159E-01
          0                28           2             4    7     1      -0.1665104780E-03       4    7    1        -0.8934947522E-02      0.2188590252E-01
          0                29           2             4    7     1      -0.1410571304E-03       4    7    1        -0.7569050868E-02      0.1854017710E-01
          0                30           2             4    7     1      -0.1195097564E-03       4    7    1        -0.6412770287E-02      0.1570790039E-01
                                                   Max.-Head-Change                         Max.-Flux-Residual
  Residual-Control   Outer-Iter.   Inner-Iter.     Column Row Layer    Maximum-Head-Change  Column Row Layer    Maximum-Flux-Residual          L2-NORM 
          0                31           1             4    7     1      -0.1012603205E-03       4    7    1        -0.5433473525E-02      0.1330914051E-01
          0                32           1             4    7     1      -0.8580057075E-04       4    7    1        -0.4603884099E-02      0.1127708463E-01

    ------------------------------------------------
       NWT REQUIRED           32 OUTER ITERATIONS 
       AND A TOTAL OF         62 INNER ITERATIONS.
    ------------------------------------------------

 NO OUTPUT CONTROL FOR STRESS PERIOD    8   TIME STEP   13
 
 SOLVING FOR HEAD 
                                                   Max.-Head-Change                         Max.-Flux-Residual
  Residual-Control   Outer-Iter.   Inner-Iter.     Column Row Layer    Maximum-Head-Change  Column Row Layer    Maximum-Flux-Residual          L2-NORM 
          0                 1           2             5    8     1       0.9575373885E-01       5    8    1         0.5238048003E+01      0.1198818508E+02
          0                 2           2             5    7     1      -0.1911642655E+00       5    8    1        -0.1051457009E+02      0.2548228855E+02
          0                 3           2             4    7     1      -0.1637906095E-02       4    7    1        -0.8827353616E-01      0.1940706441E+00
          0                 4           2             4    7     1      -0.1190912766E-01       5    8    1        -0.6405010644E+00      0.1567535455E+01
          0                 5           2             4    7     1      -0.8928259408E-02       4    7    1        -0.4791932620E+00      0.1173634850E+01
          0                 6           2             4    7     1      -0.7372475793E-02       5    6    1        -0.3956877963E+00      0.9692323075E+00
          0                 7           2             4    7     1      -0.6080051784E-02       4    7    1        -0.3263181856E+00      0.7993064002E+00
          0                 8           2             4    7     1      -0.5042866210E-02       4    7    1        -0.2706495708E+00      0.6629484532E+00
          0                 9           2             4    7     1      -0.4198903972E-02       4    7    1        -0.2253521762E+00      0.5519937423E+00
          0                10           2             4    7     1      -0.3507178579E-02       4    7    1        -0.1882260003E+00      0.4610542443E+00
                                                   Max.-Head-Change                         Max.-Flux-Residual
  Residual-Control   Outer-Iter.   Inner-Iter.     Column Row Layer    Maximum-Head-Change  Column Row Layer    Maximum-Flux-Residual          L2-NORM 
          0                11           2             4    7     1      -0.2936816492E-02       4    7    1        -0.1576138828E+00      0.3860707382E+00
          0                12           2             4    7     1      -0.2464267723E-02       4    7    1        -0.1322517638E+00      0.3239469515E+00
          0                13           2             4    7     1      -0.2071226675E-02       4    7    1        -0.1111570836E+00      0.2722761328E+00
          0                14           2             4    7     1      -0.1743267347E-02       4    7    1        -0.9355552489E-01      0.2291616147E+00
          0                15           2             4    7     1      -0.1468926057E-02       4    7    1        -0.7883177617E-01      0.1930962098E+00
          0                16           2             4    7     1      -0.1238948285E-02       4    7    1        -0.6648910545E-01      0.1628631875E+00
          0                17           2             4    7     1      -0.1045790569E-02       4    7    1        -0.5612262390E-01      0.1374707843E+00
          0                18           2             4    7     1      -0.8833177774E-03       4    7    1        -0.4740303561E-01      0.1161123992E+00
          0                19           2             4    7     1      -0.7465044576E-03       4    7    1        -0.4006060702E-01      0.9812732779E-01
          0                20           2             4    7     1      -0.6311892066E-03       4    7    1        -0.3387198297E-01      0.8296846790E-01
                                                   Max.-Head-Change                         Max.-Flux-Residual
  Residual-Control   Outer-Iter.   Inner-Iter.     Column Row Layer    Maximum-Head-Change  Column Row Layer    Maximum-Flux-Residual          L2-NORM 
          0                21           2             4    7     1      -0.5338964156E-03       4    7    1        -0.2865061852E-01      0.7017888298E-01
          0                22           2             4    7     1      -0.4517421400E-03       4    7    1        -0.2424172615E-01      0.5937942550E-01
          0                23           2             4    7     1      -0.3823340762E-03       4    7    1        -0.2051690666E-01      0.5025558519E-01
          0                24           2             4    7     1      -0.3236541755E-03       4    7    1        -0.1736784882E-01      0.4254205671E-01
          0                25           2             4    7     1      -0.2740491079E-03       4    7    1        -0.1470581671E-01      0.3602148408E-01
          0                26           2             4    7     1      -0.2320887544E-03       4    7    1        -0.1245405544E-01      0.3050585835E-01
          0                27           2             4    7     1      -0.1965761403E-03       4    7    1        -0.1054832351E-01      0.2583782160E-01
          0                28           2             4    7     1      -0.1665111907E-03       4    7    1        -0.8934947512E-02      0.2188590251E-01
          0                29           2             4    7     1      -0.1410577344E-03       4    7    1        -0.7569050867E-02      0.1854017708E-01
          0                30           2             4    7     1      -0.1195102682E-03       4    7    1        -0.6412770283E-02      0.1570790054E-01
                                                   Max.-Head-Change                         Max.-Flux-Residual
  Residual-Control   Outer-Iter.   Inner-Iter.     Column Row Layer    Maximum-Head-Change  Column Row Layer    Maximum-Flux-Residual          L2-NORM 
          0                31           1             4    7     1      -0.1012607538E-03       4    7    1        -0.5433473521E-02      0.1330914058E-01
          0                32           1             4    7     1      -0.8580093810E-04       4    7    1        -0.4603884107E-02      0.1127708464E-01

    ------------------------------------------------
       NWT REQUIRED           32 OUTER ITERATIONS 
       AND A TOTAL OF         62 INNER ITERATIONS.
    ------------------------------------------------

 NO OUTPUT CONTROL FOR STRESS PERIOD    8   TIME STEP   14
 
 SOLVING FOR HEAD 
                                                   Max.-Head-Change                         Max.-Flux-Residual
  Residual-Control   Outer-Iter.   Inner-Iter.     Column Row Layer    Maximum-Head-Change  Column Row Layer    Maximum-Flux-Residual          L2-NORM 
          0                 1           2             5    8     1       0.9893017586E-01       5    8    1         0.5411017646E+01      0.1240893464E+02
          0                 2           2             5    7     1      -0.1914321606E+00       5    8    1        -0.1053186638E+02      0.2551927500E+02
          0                 3           2             4    7     1      -0.1623456683E-02       4    7    1        -0.8750587790E-01      0.1919553842E+00
          0                 4           2             4    7     1      -0.1191019147E-01       5    8    1        -0.6405854387E+00      0.1567713493E+01
          0                 5           2             4    7     1      -0.8928227298E-02       4    7    1        -0.4791895062E+00      0.1173622416E+01
          0                 6           2             4    7     1      -0.7372512761E-02       5    6    1        -0.3956882048E+00      0.9692331761E+00
          0                 7           2             4    7     1      -0.6080077831E-02       4    7    1        -0.3263181671E+00      0.7993063385E+00
          0                 8           2             4    7     1      -0.5042888126E-02       4    7    1        -0.2706495721E+00      0.6629484568E+00
          0                 9           2             4    7     1      -0.4198922199E-02       4    7    1        -0.2253521760E+00      0.5519937414E+00
          0                10           2             4    7     1      -0.3507193804E-02       4    7    1        -0.1882260002E+00      0.4610542438E+00
                                                   Max.-Head-Change                         Max.-Flux-Residual
  Residual-Control   Outer-Iter.   Inner-Iter.     Column Row Layer    Maximum-Head-Change  Column Row Layer    Maximum-Flux-Residual          L2-NORM 
          0                11           2             4    7     1      -0.2936829241E-02       4    7    1        -0.1576138827E+00      0.3860707378E+00
          0                12           2             4    7     1      -0.2464278421E-02       4    7    1        -0.1322517638E+00      0.3239469512E+00
          0                13           2             4    7     1      -0.2071235667E-02       4    7    1        -0.1111570836E+00      0.2722761325E+00
          0                14           2             4    7     1      -0.1743274914E-02       4    7    1        -0.9355552484E-01      0.2291616144E+00
          0                15           2             4    7     1      -0.1468932434E-02       4    7    1        -0.7883177614E-01      0.1930962096E+00
          0                16           2             4    7     1      -0.1238953664E-02       4    7    1        -0.6648910545E-01      0.1628631874E+00
          0                17           2             4    7     1      -0.1045795108E-02       4    7    1        -0.5612262388E-01      0.1374707841E+00
          0                18           2             4    7     1      -0.8833216123E-03       4    7    1        -0.4740303559E-01      0.1161123991E+00
          0                19           2             4    7     1      -0.7465076980E-03       4    7    1        -0.4006060699E-01      0.9812732769E-01
          0                20           2             4    7     1      -0.6311919470E-03       4    7    1        -0.3387198296E-01      0.8296846784E-01
                                                   Max.-Head-Change                         Max.-Flux-Residual
  Residual-Control   Outer-Iter.   Inner-Iter.     Column Row Layer    Maximum-Head-Change  Column Row Layer    Maximum-Flux-Residual          L2-NORM 
          0                21           2             4    7     1      -0.5338987332E-03       4    7    1        -0.2865061850E-01      0.7017888292E-01
          0                22           2             4    7     1      -0.4517441005E-03       4    7    1        -0.2424172612E-01      0.5937942542E-01
          0                23           2             4    7     1      -0.3823357360E-03       4    7    1        -0.2051690667E-01      0.5025558512E-01
          0                24           2             4    7     1      -0.3236555807E-03       4    7    1        -0.1736784882E-01      0.4254205669E-01
          0                25           2             4    7     1      -0.2740502977E-03       4    7    1        -0.1470581671E-01      0.3602148406E-01
          0                26           2             4    7     1      -0.2320897621E-03       4    7    1        -0.1245405544E-01      0.3050585826E-01
          0                27           2             4    7     1      -0.1965769933E-03       4    7    1        -0.1054832350E-01      0.2583782155E-01
          0                28           2             4    7     1      -0.1665119137E-03       4    7    1        -0.8934947520E-02      0.2188590252E-01
          0                29           2             4    7     1      -0.1410583464E-03       4    7    1        -0.7569050870E-02      0.1854017710E-01
          0                30           2             4    7     1      -0.1195107875E-03       4    7    1        -0.6412770302E-02      0.1570790041E-01
                                                   Max.-Head-Change                         Max.-Flux-Residual
  Residual-Control   Outer-Iter.   Inner-Iter.     Column Row Layer    Maximum-Head-Change  Column Row Layer    Maximum-Flux-Residual          L2-NORM 
          0                31           1             4    7     1      -0.1012611934E-03       4    7    1        -0.5433473509E-02      0.1330914052E-01
          0                32           1             4    7     1      -0.8580131019E-04       4    7    1        -0.4603884102E-02      0.1127708466E-01

    ------------------------------------------------
       NWT REQUIRED           32 OUTER ITERATIONS 
       AND A TOTAL OF         62 INNER ITERATIONS.
    ------------------------------------------------

 OUTPUT CONTROL FOR STRESS PERIOD    8   TIME STEP   15
    PRINT BUDGET
    SAVE BUDGET
 UBDSV1 SAVING "         STORAGE" ON UNIT 102 AT TIME STEP 15, STRESS PERIOD 8
 UBDSV2 SAVING "   CONSTANT HEAD" ON UNIT 102 AT TIME STEP 15, STRESS PERIOD 8
 UBDSV1 SAVING "FLOW RIGHT FACE " ON UNIT 102 AT TIME STEP 15, STRESS PERIOD 8
 UBDSV1 SAVING "FLOW FRONT FACE " ON UNIT 102 AT TIME STEP 15, STRESS PERIOD 8

  HEAD DEP BOUNDS   PERIOD    8   STEP    15
 BOUNDARY      1   LAYER   1   ROW    13   COL     1   RATE   -0.298995    
 BOUNDARY      2   LAYER   1   ROW    14   COL     9   RATE    0.285478    



 STREAM LISTING     PERIOD      8   STEP       15

 LAYER ROW COL. STREAM  RCH.  FLOW INTO     FLOW TO   FLOW OUT OF   OVRLND.     DIRECT     STREAM       STREAM     STREAM     STREAM   STREAMBED  STREAMBED
                SEG.NO.  NO.  STRM. RCH.    AQUIFER    STRM. RCH.    RUNOFF     PRECIP       ET          HEAD       DEPTH      WIDTH   CONDCTNC.   GRADIENT

   1    1    1     1     1    7.4999E+01  4.2231E-01   7.4577E+01  0.000E+00  0.000E+00  0.000E+00  1.09475E+03  1.698E+00  1.998E+01  8.990E-02  1.566E+00
   1    2    2     1     2    7.4577E+01  6.5422E-01   7.3923E+01  0.000E+00  0.000E+00  0.000E+00  1.08975E+03  1.692E+00  1.992E+01  1.394E-01  1.564E+00
   1    3    3     1     3    7.3923E+01  5.5813E-01   7.3365E+01  0.000E+00  0.000E+00  0.000E+00  1.08410E+03  1.685E+00  1.985E+01  1.191E-01  1.562E+00
   1    3    4     1     4    7.3365E+01  5.1411E-01   7.2851E+01  0.000E+00  0.000E+00  0.000E+00  1.07909E+03  1.679E+00  1.980E+01  1.099E-01  1.560E+00
   1    4    5     2     1    7.0851E+01  4.0967E-01   7.0441E+01  0.000E+00  0.000E+00  0.000E+00  1.07419E+03  2.252E+00  1.200E+01  7.800E-02  1.751E+00
   1    5    6     2     2    7.0441E+01  3.1471E-01   7.0126E+01  0.000E+00  0.000E+00  0.000E+00  1.06875E+03  2.245E+00  1.200E+01  6.000E-02  1.748E+00
   1    6    6     2     3    7.0126E+01  3.1435E-01   6.9812E+01  0.000E+00  0.000E+00  0.000E+00  1.06403E+03  2.239E+00  1.200E+01  6.000E-02  1.746E+00
   1    7    6     2     4    6.9812E+01  3.1399E-01   6.9498E+01  0.000E+00  0.000E+00  0.000E+00  1.05931E+03  2.233E+00  1.200E+01  6.000E-02  1.744E+00
   1    8    6     2     5    6.9498E+01  3.1363E-01   6.9184E+01  0.000E+00  0.000E+00  0.000E+00  1.05459E+03  2.227E+00  1.200E+01  6.000E-02  1.742E+00
   1    3    5     3     1    2.0000E+00  2.8252E-01   1.7175E+00  0.000E+00  0.000E+00  0.000E+00  1.07555E+03  1.909E+00  9.636E+00  7.227E-02  1.955E+00
   1    3    6     3     2    1.7175E+00  2.4905E-01   1.4684E+00  0.000E+00  0.000E+00  0.000E+00  1.07264E+03  1.727E+00  8.909E+00  6.682E-02  1.864E+00
   1    3    7     3     3    1.4684E+00  1.9718E-01   1.2712E+00  0.000E+00  0.000E+00  0.000E+00  1.06987E+03  1.555E+00  8.218E+00  5.547E-02  1.777E+00
   1    4    8     3     4    1.2712E+00  2.2567E-01   1.0456E+00  0.000E+00  0.000E+00  0.000E+00  1.06682E+03  1.364E+00  7.455E+00  6.709E-02  1.682E+00
   1    5    8     3     5    1.0456E+00  1.5790E-01   8.8768E-01  0.000E+00  0.000E+00  0.000E+00  1.06362E+03  1.164E+00  6.655E+00  4.991E-02  1.582E+00
   1    6    8     3     6    8.8768E-01  5.5980E-02   8.3170E-01  0.000E+00  0.000E+00  0.000E+00  1.06158E+03  1.036E+00  6.145E+00  1.844E-02  1.518E+00
   1    5   10     4     1    1.0000E+01  9.0919E-02   9.9091E+00  0.000E+00  0.000E+00  0.000E+00  1.07836E+03  6.368E-01  1.000E+01  2.500E-02  1.212E+00
   1    5    9     4     2    9.9091E+00  1.8158E-01   9.7275E+00  0.000E+00  0.000E+00  0.000E+00  1.07154E+03  6.315E-01  1.000E+01  5.000E-02  1.211E+00
   1    6    8     4     3    9.7275E+00  1.2689E-01   9.6006E+00  0.000E+00  0.000E+00  0.000E+00  1.06381E+03  6.256E-01  1.000E+01  3.500E-02  1.209E+00
   1    6    8     5     1    1.0432E+01  2.2686E-01   1.0205E+01  0.000E+00  0.000E+00  0.000E+00  1.05868E+03  6.790E-01  1.542E+01  6.166E-02  1.226E+00
   1    7    7     5     2    1.0205E+01  2.7894E-01   9.9265E+00  0.000E+00  0.000E+00  0.000E+00  1.05417E+03  6.732E-01  1.519E+01  7.594E-02  1.224E+00
   1    8    7     5     3    9.9265E+00  1.9221E-01   9.7343E+00  0.000E+00  0.000E+00  0.000E+00  1.04992E+03  6.676E-01  1.497E+01  5.241E-02  1.223E+00
   1    8    6     5     4    9.7343E+00  1.3577E-01   9.5985E+00  0.000E+00  0.000E+00  0.000E+00  1.04691E+03  6.637E-01  1.482E+01  3.706E-02  1.221E+00
   1    9    6     6     1    7.8783E+01  3.2569E-01   7.8457E+01  0.000E+00  0.000E+00  0.000E+00  1.04516E+03  2.428E+00  1.200E+01  6.000E-02  1.809E+00
   1   10    7     6     2    7.8457E+01  3.2533E-01   7.8132E+01  0.000E+00  0.000E+00  0.000E+00  1.04060E+03  2.422E+00  1.200E+01  6.000E-02  1.807E+00
   1   11    7     6     3    7.8132E+01  3.2497E-01   7.7807E+01  0.000E+00  0.000E+00  0.000E+00  1.03605E+03  2.416E+00  1.200E+01  6.000E-02  1.805E+00
   1   12    7     6     4    7.7807E+01  3.2461E-01   7.7482E+01  0.000E+00  0.000E+00  0.000E+00  1.03150E+03  2.410E+00  1.200E+01  6.000E-02  1.803E+00
   1   13    7     6     5    7.7482E+01  2.5848E-02   7.7456E+01  0.000E+00  0.000E+00  0.000E+00  1.02832E+03  2.407E+00  1.200E+01  2.400E-02  3.590E-01
   1   14    9     7     1    1.5000E+02  1.3317E+00   1.4867E+02  0.000E+00  0.000E+00  0.000E+00  1.03987E+03  2.288E+00  5.529E+01  5.593E-01  7.937E-01
   1   13    8     7     2    1.4867E+02  1.8003E+00   1.4687E+02  0.000E+00  0.000E+00  0.000E+00  1.03478E+03  2.279E+00  5.526E+01  6.148E-01  9.761E-01
   1   13    7     7     3    1.4687E+02  1.3690E+00   1.4550E+02  0.000E+00  0.000E+00  0.000E+00  1.02969E+03  2.271E+00  5.522E+01  5.585E-01  8.171E-01
   1   13    6     8     1    2.2296E+02  1.0167E+00   2.2194E+02  0.000E+00  0.000E+00  0.000E+00  1.02514E+03  3.265E+00  4.735E+01  4.825E-01  7.024E-01
   1   13    5     8     2    2.2194E+02  2.0027E-01   2.2174E+02  0.000E+00  0.000E+00  0.000E+00  1.01889E+03  3.262E+00  4.730E+01  4.820E-01  1.385E-01
   1   13    4     8     3    2.2174E+02 -1.9164E+00   2.2365E+02  0.000E+00  0.000E+00  0.000E+00  1.01264E+03  3.267E+00  4.737E+01  4.827E+00 -1.323E-01
   1   13    3     8     4    2.2365E+02 -3.0694E+00   2.2672E+02  0.000E+00  0.000E+00  0.000E+00  1.00641E+03  3.280E+00  4.757E+01  4.847E+00 -2.111E-01
   1   13    2     8     5    2.2672E+02 -2.5431E+00   2.2927E+02  0.000E+00  0.000E+00  0.000E+00  1.00017E+03  3.296E+00  4.779E+01  4.870E+00 -1.741E-01
   1   13    1     8     6    2.2927E+02 -2.0097E+00   2.3128E+02  0.000E+00  0.000E+00  0.000E+00  9.95183E+02  3.308E+00  4.797E+01  2.933E+00 -2.284E-01



 UBDSV3 SAVING "           GW ET" ON UNIT  61 AT TIME STEP 15, STRESS PERIOD 8
 UBDSV3 SAVING "    UZF RECHARGE" ON UNIT  61 AT TIME STEP 15, STRESS PERIOD 8
 UBDSV3 SAVING " SURFACE LEAKAGE" ON UNIT  61 AT TIME STEP 15, STRESS PERIOD 8
 UBDSV3 SAVING "       HORT+DUNN" ON UNIT  61 AT TIME STEP 15, STRESS PERIOD 8
 UBDSV3 SAVING "  STORAGE CHANGE" ON UNIT  61 AT TIME STEP 15, STRESS PERIOD 8


UNSATURATED ZONE PACKAGE VOLUMETRIC BUDGET FOR  TIME STEP    15 STRESS PERIOD    8
  ------------------------------------------------------------------------------



     CUMULATIVE VOLUMES      L**3       RATES FOR THIS TIME STEP      L**3/T
     ------------------                 ------------------------

           IN:                                      IN:
           ---                                      ---
        INFILTRATION =   217925978.9591          INFILTRATION =          88.1754

          OUT:                                     OUT:
          ----                                     ----
              UZF ET =   181840444.9362                UZF ET =          60.7922
        UZF RECHARGE =       73224.0000          UZF RECHARGE =       0.0000E+00

            IN - OUT =    36012310.0229              IN - OUT =          27.3832

          STORAGE:                                 STORAGE:
          --------                                 --------
      STORAGE CHANGE =    36012307.2040        STORAGE CHANGE =          27.3832

 PERCENT DISCREPANCY IS DIFFERENCE BETWEEN IN-OUT MINUS CHANGE IN STORAGE
 DIVIDED BY THE AVERAGE OF IN AND OUT TIMES 100

 PERCENT DISCREPANCY =           0.00     PERCENT DISCREPANCY =           0.00






 

        AG WELLS          PERIOD    8   STEP  15
 AG WELL      1   LAYER   1   ROW     6   COL     4   RATE    -14.5546    
 AG WELL      2   LAYER   1   ROW     6   COL     5   RATE    -14.5546    
 AG WELL      3   LAYER   1   ROW     7   COL     4   RATE    -14.5546    
 AG WELL      4   LAYER   1   ROW     7   COL     5   RATE    -14.5546    
 AG WELL      5   LAYER   1   ROW     8   COL     4   RATE    -14.5546    
 AG WELL      6   LAYER   1   ROW     8   COL     5   RATE    -14.5546    
 
 

        GW IRRIGATION     PERIOD    8   STEP  15
 AG WELL      1   ROW     6   COL     4   RATE     14.5546    
 AG WELL      2   ROW     6   COL     5   RATE     14.5546    
 AG WELL      3   ROW     7   COL     4   RATE     14.5546    
 AG WELL      4   ROW     7   COL     5   RATE     14.5546    
 AG WELL      5   ROW     8   COL     4   RATE     14.5546    
 AG WELL      6   ROW     8   COL     5   RATE     14.5546    
 
1
  VOLUMETRIC BUDGET FOR AGRICULTURAL FIELDS AT  END OF TIME STEP   15, STRESS PERIOD   8
  ------------------------------------------------------------------------------

     CUMULATIVE VOLUMES      L**3       RATES FOR THIS TIME STEP      L**3/T
     ------------------                 ------------------------

           IN:                                      IN:
           ---                                      ---
           AG WELLS      =   203364800.0000             AG WELLS      =          87.3279
      DIVERSION SEGMENTS =           0.0000        DIVERSION SEGMENTS =           0.0000
           GW IRRIGATION =           0.0000             GW IRRIGATION =           0.0000
           SW IRRIGATION =           0.0000             SW IRRIGATION =           0.0000
        SYSTEM LOSSES GW =           0.0000          SYSTEM LOSSES GW =           0.0000
        SYSTEM LOSSES SW =           0.0000          SYSTEM LOSSES SW =           0.0000

                TOTAL IN =   203364800.0000                  TOTAL IN =          87.3279

          OUT:                                     OUT:
          ----                                     ----
           AG WELLS      =           0.0000             AG WELLS      =           0.0000
      DIVERSION SEGMENTS =           0.0000        DIVERSION SEGMENTS =           0.0000
           GW IRRIGATION =   203364800.0000             GW IRRIGATION =          87.3279
           SW IRRIGATION =           0.0000             SW IRRIGATION =           0.0000
        SYSTEM LOSSES GW =           0.0000          SYSTEM LOSSES GW =           0.0000
        SYSTEM LOSSES SW =           0.0000          SYSTEM LOSSES SW =           0.0000

               TOTAL OUT =   203364800.0000                 TOTAL OUT =          87.3279

                IN - OUT =           0.0000                  IN - OUT =           0.0000

     PERCENT DISCREPANCY =           0.00         PERCENT DISCREPANCY =           0.00



1
  VOLUMETRIC BUDGET FOR ENTIRE MODEL AT END OF TIME STEP   15, STRESS PERIOD   8
  ------------------------------------------------------------------------------

     CUMULATIVE VOLUMES      L**3       RATES FOR THIS TIME STEP      L**3/T
     ------------------                 ------------------------

           IN:                                      IN:
           ---                                      ---
             STORAGE     =   208798816.0000               STORAGE     =          86.4772
       CONSTANT HEAD     =           0.0000         CONSTANT HEAD     =           0.0000
     HEAD DEP BOUNDS     =     4904513.0000       HEAD DEP BOUNDS     =           0.2855
      STREAM LEAKAGE     =   219645072.0000        STREAM LEAKAGE     =          13.2610
        UZF RECHARGE     =       73223.9531          UZF RECHARGE     =           0.0000
               GW ET     =           0.0000                 GW ET     =           0.0000
     SURFACE LEAKAGE     =           0.0000       SURFACE LEAKAGE     =           0.0000
           AG WELLS      =           0.0000             AG WELLS      =           0.0000

                TOTAL IN =   433421632.0000                  TOTAL IN =         100.0237

          OUT:                                     OUT:
          ----                                     ----
             STORAGE     =    43612516.0000               STORAGE     =           1.3073
       CONSTANT HEAD     =           0.0000         CONSTANT HEAD     =           0.0000
     HEAD DEP BOUNDS     =     5067679.5000       HEAD DEP BOUNDS     =           0.2990
      STREAM LEAKAGE     =   173064384.0000        STREAM LEAKAGE     =           9.5386
        UZF RECHARGE     =           0.0000          UZF RECHARGE     =           0.0000
               GW ET     =     8313780.0000                 GW ET     =           1.5490
     SURFACE LEAKAGE     =           0.0000       SURFACE LEAKAGE     =           0.0000
           AG WELLS      =   203364800.0000             AG WELLS      =          87.3279

               TOTAL OUT =   433423168.0000                 TOTAL OUT =         100.0218

                IN - OUT =       -1536.0000                  IN - OUT =       1.9302E-03

     PERCENT DISCREPANCY =          -0.00         PERCENT DISCREPANCY =           0.00






         TIME SUMMARY AT END OF TIME STEP   15 IN STRESS PERIOD    8
                    SECONDS     MINUTES      HOURS       DAYS        YEARS
                    -----------------------------------------------------------
   TIME STEP LENGTH  87667.      1461.1      24.352      1.0147     2.77799E-03
 STRESS PERIOD TIME 1.31500E+06  21917.      365.28      15.220     4.16698E-02
         TOTAL TIME 1.71814E+07 2.86357E+05  4772.6      198.86     0.54445    
1
 
 SOLVING FOR HEAD 
                                                   Max.-Head-Change                         Max.-Flux-Residual
  Residual-Control   Outer-Iter.   Inner-Iter.     Column Row Layer    Maximum-Head-Change  Column Row Layer    Maximum-Flux-Residual          L2-NORM 
          0                 1           2             5    8     1       0.1019639610E+00       5    8    1         0.5576076128E+01      0.1281423401E+02
          0                 2           2             5    7     1      -0.1916942321E+00       5    8    1        -0.1054837157E+02      0.2555518932E+02
          0                 3           2             4    7     1      -0.1608950745E-02       4    7    1        -0.8673395218E-01      0.1899117204E+00
          0                 4           2             4    7     1      -0.1191125986E-01       5    8    1        -0.6406659624E+00      0.1567886394E+01
          0                 5           2             4    7     1      -0.8928195374E-02       4    7    1        -0.4791857293E+00      0.1173610341E+01
          0                 6           2             4    7     1      -0.7372550132E-02       5    6    1        -0.3956885959E+00      0.9692340198E+00
          0                 7           2             4    7     1      -0.6080104192E-02       4    7    1        -0.3263181485E+00      0.7993062786E+00
          0                 8           2             4    7     1      -0.5042910305E-02       4    7    1        -0.2706495733E+00      0.6629484603E+00
          0                 9           2             4    7     1      -0.4198940643E-02       4    7    1        -0.2253521758E+00      0.5519937406E+00
          0                10           2             4    7     1      -0.3507209212E-02       4    7    1        -0.1882260002E+00      0.4610542434E+00
                                                   Max.-Head-Change                         Max.-Flux-Residual
  Residual-Control   Outer-Iter.   Inner-Iter.     Column Row Layer    Maximum-Head-Change  Column Row Layer    Maximum-Flux-Residual          L2-NORM 
          0                11           2             4    7     1      -0.2936842143E-02       4    7    1        -0.1576138827E+00      0.3860707374E+00
          0                12           2             4    7     1      -0.2464289247E-02       4    7    1        -0.1322517637E+00      0.3239469508E+00
          0                13           2             4    7     1      -0.2071244765E-02       4    7    1        -0.1111570835E+00      0.2722761322E+00
          0                14           2             4    7     1      -0.1743282573E-02       4    7    1        -0.9355552483E-01      0.2291616142E+00
          0                15           2             4    7     1      -0.1468938887E-02       4    7    1        -0.7883177611E-01      0.1930962094E+00
          0                16           2             4    7     1      -0.1238959106E-02       4    7    1        -0.6648910541E-01      0.1628631872E+00
          0                17           2             4    7     1      -0.1045799703E-02       4    7    1        -0.5612262388E-01      0.1374707840E+00
          0                18           2             4    7     1      -0.8833254925E-03       4    7    1        -0.4740303558E-01      0.1161123990E+00
          0                19           2             4    7     1      -0.7465109779E-03       4    7    1        -0.4006060700E-01      0.9812732763E-01
          0                20           2             4    7     1      -0.6311947198E-03       4    7    1        -0.3387198294E-01      0.8296846777E-01
                                                   Max.-Head-Change                         Max.-Flux-Residual
  Residual-Control   Outer-Iter.   Inner-Iter.     Column Row Layer    Maximum-Head-Change  Column Row Layer    Maximum-Flux-Residual          L2-NORM 
          0                21           2             4    7     1      -0.5339010785E-03       4    7    1        -0.2865061849E-01      0.7017888285E-01
          0                22           2             4    7     1      -0.4517460855E-03       4    7    1        -0.2424172614E-01      0.5937942537E-01
          0                23           2             4    7     1      -0.3823374154E-03       4    7    1        -0.2051690665E-01      0.5025558508E-01
          0                24           2             4    7     1      -0.3236570027E-03       4    7    1        -0.1736784882E-01      0.4254205665E-01
          0                25           2             4    7     1      -0.2740515015E-03       4    7    1        -0.1470581671E-01      0.3602148402E-01
          0                26           2             4    7     1      -0.2320907816E-03       4    7    1        -0.1245405544E-01      0.3050585822E-01
          0                27           2             4    7     1      -0.1965778573E-03       4    7    1        -0.1054832352E-01      0.2583782154E-01
          0                28           2             4    7     1      -0.1665126454E-03       4    7    1        -0.8934947510E-02      0.2188590248E-01
          0                29           2             4    7     1      -0.1410589662E-03       4    7    1        -0.7569050850E-02      0.1854017708E-01
          0                30           2             4    7     1      -0.1195113121E-03       4    7    1        -0.6412770277E-02      0.1570790037E-01
                                                   Max.-Head-Change                         Max.-Flux-Residual
  Residual-Control   Outer-Iter.   Inner-Iter.     Column Row Layer    Maximum-Head-Change  Column Row Layer    Maximum-Flux-Residual          L2-NORM 
          0                31           1             4    7     1      -0.1012616382E-03       4    7    1        -0.5433473511E-02      0.1330914049E-01
          0                32           1             4    7     1      -0.8580168752E-04       4    7    1        -0.4603884102E-02      0.1127708463E-01

    ------------------------------------------------
       NWT REQUIRED           32 OUTER ITERATIONS 
       AND A TOTAL OF         62 INNER ITERATIONS.
    ------------------------------------------------

 NO OUTPUT CONTROL FOR STRESS PERIOD    8   TIME STEP   16
 
 SOLVING FOR HEAD 
                                                   Max.-Head-Change                         Max.-Flux-Residual
  Residual-Control   Outer-Iter.   Inner-Iter.     Column Row Layer    Maximum-Head-Change  Column Row Layer    Maximum-Flux-Residual          L2-NORM 
          0                 1           2             5    8     1       0.1048637109E+00       5    8    1         0.5733706063E+01      0.1320487093E+02
          0                 2           2             5    7     1      -0.1919505547E+00       5    8    1        -0.1056413391E+02      0.2559007322E+02
          0                 3           2             4    7     1      -0.1594410993E-02       4    7    1        -0.8595906705E-01      0.1879357183E+00
          0                 4           2             4    7     1      -0.1191233116E-01       5    8    1        -0.6407428702E+00      0.1568054363E+01
          0                 5           2             4    7     1      -0.8928163684E-02       4    7    1        -0.4791819377E+00      0.1173598609E+01
          0                 6           2             4    7     1      -0.7372587843E-02       5    6    1        -0.3956889703E+00      0.9692348396E+00
          0                 7           2             4    7     1      -0.6080130825E-02       4    7    1        -0.3263181298E+00      0.7993062206E+00
          0                 8           2             4    7     1      -0.5042932709E-02       4    7    1        -0.2706495745E+00      0.6629484638E+00
          0                 9           2             4    7     1      -0.4198959275E-02       4    7    1        -0.2253521757E+00      0.5519937399E+00
          0                10           2             4    7     1      -0.3507224776E-02       4    7    1        -0.1882260001E+00      0.4610542431E+00
                                                   Max.-Head-Change                         Max.-Flux-Residual
  Residual-Control   Outer-Iter.   Inner-Iter.     Column Row Layer    Maximum-Head-Change  Column Row Layer    Maximum-Flux-Residual          L2-NORM 
          0                11           2             4    7     1      -0.2936855176E-02       4    7    1        -0.1576138826E+00      0.3860707371E+00
          0                12           2             4    7     1      -0.2464300182E-02       4    7    1        -0.1322517637E+00      0.3239469506E+00
          0                13           2             4    7     1      -0.2071253958E-02       4    7    1        -0.1111570835E+00      0.2722761320E+00
          0                14           2             4    7     1      -0.1743290309E-02       4    7    1        -0.9355552479E-01      0.2291616140E+00
          0                15           2             4    7     1      -0.1468945406E-02       4    7    1        -0.7883177609E-01      0.1930962093E+00
          0                16           2             4    7     1      -0.1238964604E-02       4    7    1        -0.6648910539E-01      0.1628631871E+00
          0                17           2             4    7     1      -0.1045804344E-02       4    7    1        -0.5612262385E-01      0.1374707839E+00
          0                18           2             4    7     1      -0.8833294124E-03       4    7    1        -0.4740303554E-01      0.1161123989E+00
          0                19           2             4    7     1      -0.7465142905E-03       4    7    1        -0.4006060697E-01      0.9812732752E-01
          0                20           2             4    7     1      -0.6311975210E-03       4    7    1        -0.3387198294E-01      0.8296846770E-01
                                                   Max.-Head-Change                         Max.-Flux-Residual
  Residual-Control   Outer-Iter.   Inner-Iter.     Column Row Layer    Maximum-Head-Change  Column Row Layer    Maximum-Flux-Residual          L2-NORM 
          0                21           2             4    7     1      -0.5339034479E-03       4    7    1        -0.2865061848E-01      0.7017888278E-01
          0                22           2             4    7     1      -0.4517480901E-03       4    7    1        -0.2424172612E-01      0.5937942531E-01
          0                23           2             4    7     1      -0.3823391125E-03       4    7    1        -0.2051690665E-01      0.5025558502E-01
          0                24           2             4    7     1      -0.3236584386E-03       4    7    1        -0.1736784881E-01      0.4254205660E-01
          0                25           2             4    7     1      -0.2740527181E-03       4    7    1        -0.1470581672E-01      0.3602148398E-01
          0                26           2             4    7     1      -0.2320918115E-03       4    7    1        -0.1245405543E-01      0.3050585818E-01
          0                27           2             4    7     1      -0.1965787295E-03       4    7    1        -0.1054832350E-01      0.2583782149E-01
          0                28           2             4    7     1      -0.1665133843E-03       4    7    1        -0.8934947509E-02      0.2188590243E-01
          0                29           2             4    7     1      -0.1410595921E-03       4    7    1        -0.7569050847E-02      0.1854017703E-01
          0                30           2             4    7     1      -0.1195118426E-03       4    7    1        -0.6412770283E-02      0.1570790034E-01
                                                   Max.-Head-Change                         Max.-Flux-Residual
  Residual-Control   Outer-Iter.   Inner-Iter.     Column Row Layer    Maximum-Head-Change  Column Row Layer    Maximum-Flux-Residual          L2-NORM 
          0                31           1             4    7     1      -0.1012620878E-03       4    7    1        -0.5433473508E-02      0.1330914046E-01
          0                32           1             4    7     1      -0.8580206789E-04       4    7    1        -0.4603884082E-02      0.1127708458E-01

    ------------------------------------------------
       NWT REQUIRED           32 OUTER ITERATIONS 
       AND A TOTAL OF         62 INNER ITERATIONS.
    ------------------------------------------------

 NO OUTPUT CONTROL FOR STRESS PERIOD    8   TIME STEP   17
 
 SOLVING FOR HEAD 
                                                   Max.-Head-Change                         Max.-Flux-Residual
  Residual-Control   Outer-Iter.   Inner-Iter.     Column Row Layer    Maximum-Head-Change  Column Row Layer    Maximum-Flux-Residual          L2-NORM 
          0                 1           2             5    8     1       0.1076379630E+00       5    8    1         0.5884385613E+01      0.1358162084E+02
          0                 2           2             5    7     1      -0.1922012149E+00       5    8    1        -0.1057920122E+02      0.2562396985E+02
          0                 3           2             4    7     1      -0.1579856525E-02       4    7    1        -0.8518233048E-01      0.1860235611E+00
          0                 4           2             4    7     1      -0.1191340395E-01       5    8    1        -0.6408163947E+00      0.1568217611E+01
          0                 5           2             4    7     1      -0.8928132264E-02       4    7    1        -0.4791781369E+00      0.1173587207E+01
          0                 6           2             4    7     1      -0.7372625844E-02       5    6    1        -0.3956893292E+00      0.9692356365E+00
          0                 7           2             4    7     1      -0.6080157691E-02       4    7    1        -0.3263181111E+00      0.7993061642E+00
          0                 8           2             4    7     1      -0.5042955306E-02       4    7    1        -0.2706495757E+00      0.6629484672E+00
          0                 9           2             4    7     1      -0.4198978069E-02       4    7    1        -0.2253521755E+00      0.5519937393E+00
          0                10           2             4    7     1      -0.3507240475E-02       4    7    1        -0.1882260001E+00      0.4610542428E+00
                                                   Max.-Head-Change                         Max.-Flux-Residual
  Residual-Control   Outer-Iter.   Inner-Iter.     Column Row Layer    Maximum-Head-Change  Column Row Layer    Maximum-Flux-Residual          L2-NORM 
          0                11           2             4    7     1      -0.2936868322E-02       4    7    1        -0.1576138826E+00      0.3860707369E+00
          0                12           2             4    7     1      -0.2464311213E-02       4    7    1        -0.1322517637E+00      0.3239469504E+00
          0                13           2             4    7     1      -0.2071263229E-02       4    7    1        -0.1111570835E+00      0.2722761318E+00
          0                14           2             4    7     1      -0.1743298113E-02       4    7    1        -0.9355552476E-01      0.2291616139E+00
          0                15           2             4    7     1      -0.1468951981E-02       4    7    1        -0.7883177606E-01      0.1930962091E+00
          0                16           2             4    7     1      -0.1238970151E-02       4    7    1        -0.6648910540E-01      0.1628631870E+00
          0                17           2             4    7     1      -0.1045809025E-02       4    7    1        -0.5612262385E-01      0.1374707838E+00
          0                18           2             4    7     1      -0.8833333662E-03       4    7    1        -0.4740303553E-01      0.1161123988E+00
          0                19           2             4    7     1      -0.7465176323E-03       4    7    1        -0.4006060697E-01      0.9812732746E-01
          0                20           2             4    7     1      -0.6312003462E-03       4    7    1        -0.3387198292E-01      0.8296846762E-01
                                                   Max.-Head-Change                         Max.-Flux-Residual
  Residual-Control   Outer-Iter.   Inner-Iter.     Column Row Layer    Maximum-Head-Change  Column Row Layer    Maximum-Flux-Residual          L2-NORM 
          0                21           2             4    7     1      -0.5339058381E-03       4    7    1        -0.2865061848E-01      0.7017888274E-01
          0                22           2             4    7     1      -0.4517501121E-03       4    7    1        -0.2424172610E-01      0.5937942526E-01
          0                23           2             4    7     1      -0.3823408236E-03       4    7    1        -0.2051690664E-01      0.5025558499E-01
          0                24           2             4    7     1      -0.3236598878E-03       4    7    1        -0.1736784881E-01      0.4254205656E-01
          0                25           2             4    7     1      -0.2740539444E-03       4    7    1        -0.1470581670E-01      0.3602148398E-01
          0                26           2             4    7     1      -0.2320928508E-03       4    7    1        -0.1245405544E-01      0.3050585815E-01
          0                27           2             4    7     1      -0.1965796092E-03       4    7    1        -0.1054832349E-01      0.2583782147E-01
          0                28           2             4    7     1      -0.1665141297E-03       4    7    1        -0.8934947507E-02      0.2188590242E-01
          0                29           2             4    7     1      -0.1410602235E-03       4    7    1        -0.7569050847E-02      0.1854017700E-01
          0                30           2             4    7     1      -0.1195123775E-03       4    7    1        -0.6412770281E-02      0.1570790033E-01
                                                   Max.-Head-Change                         Max.-Flux-Residual
  Residual-Control   Outer-Iter.   Inner-Iter.     Column Row Layer    Maximum-Head-Change  Column Row Layer    Maximum-Flux-Residual          L2-NORM 
          0                31           1             4    7     1      -0.1012625411E-03       4    7    1        -0.5433473511E-02      0.1330914045E-01
          0                32           1             4    7     1      -0.8580245178E-04       4    7    1        -0.4603884083E-02      0.1127708458E-01

    ------------------------------------------------
       NWT REQUIRED           32 OUTER ITERATIONS 
       AND A TOTAL OF         62 INNER ITERATIONS.
    ------------------------------------------------

 NO OUTPUT CONTROL FOR STRESS PERIOD    8   TIME STEP   18
 
 SOLVING FOR HEAD 
                                                   Max.-Head-Change                         Max.-Flux-Residual
  Residual-Control   Outer-Iter.   Inner-Iter.     Column Row Layer    Maximum-Head-Change  Column Row Layer    Maximum-Flux-Residual          L2-NORM 
          0                 1           2             5    8     1       0.1102943436E+00       5    8    1         0.6028541765E+01      0.1394519763E+02
          0                 2           2             5    7     1      -0.1924463062E+00       5    8    1        -0.1059361621E+02      0.2565691785E+02
          0                 3           2             4    7     1      -0.1565305848E-02       4    7    1        -0.8440481173E-01      0.1841718913E+00
          0                 4           2             4    7     1      -0.1191447687E-01       5    8    1        -0.6408867437E+00      0.1568376327E+01
          0                 5           2             4    7     1      -0.8928101153E-02       4    7    1        -0.4791743320E+00      0.1173576120E+01
          0                 6           2             4    7     1      -0.7372664082E-02       5    6    1        -0.3956896735E+00      0.9692364115E+00
          0                 7           2             4    7     1      -0.6080184754E-02       4    7    1        -0.3263180923E+00      0.7993061094E+00
          0                 8           2             4    7     1      -0.5042978068E-02       4    7    1        -0.2706495770E+00      0.6629484706E+00
          0                 9           2             4    7     1      -0.4198997000E-02       4    7    1        -0.2253521754E+00      0.5519937387E+00
          0                10           2             4    7     1      -0.3507256288E-02       4    7    1        -0.1882260000E+00      0.4610542425E+00
                                                   Max.-Head-Change                         Max.-Flux-Residual
  Residual-Control   Outer-Iter.   Inner-Iter.     Column Row Layer    Maximum-Head-Change  Column Row Layer    Maximum-Flux-Residual          L2-NORM 
          0                11           2             4    7     1      -0.2936881563E-02       4    7    1        -0.1576138825E+00      0.3860707367E+00
          0                12           2             4    7     1      -0.2464322324E-02       4    7    1        -0.1322517636E+00      0.3239469502E+00
          0                13           2             4    7     1      -0.2071272567E-02       4    7    1        -0.1111570835E+00      0.2722761317E+00
          0                14           2             4    7     1      -0.1743305973E-02       4    7    1        -0.9355552476E-01      0.2291616138E+00
          0                15           2             4    7     1      -0.1468958604E-02       4    7    1        -0.7883177605E-01      0.1930962090E+00
          0                16           2             4    7     1      -0.1238975737E-02       4    7    1        -0.6648910537E-01      0.1628631869E+00
          0                17           2             4    7     1      -0.1045813741E-02       4    7    1        -0.5612262383E-01      0.1374707837E+00
          0                18           2             4    7     1      -0.8833373492E-03       4    7    1        -0.4740303554E-01      0.1161123987E+00
          0                19           2             4    7     1      -0.7465209977E-03       4    7    1        -0.4006060695E-01      0.9812732740E-01
          0                20           2             4    7     1      -0.6312031923E-03       4    7    1        -0.3387198293E-01      0.8296846760E-01
                                                   Max.-Head-Change                         Max.-Flux-Residual
  Residual-Control   Outer-Iter.   Inner-Iter.     Column Row Layer    Maximum-Head-Change  Column Row Layer    Maximum-Flux-Residual          L2-NORM 
          0                21           2             4    7     1      -0.5339082450E-03       4    7    1        -0.2865061848E-01      0.7017888271E-01
          0                22           2             4    7     1      -0.4517521491E-03       4    7    1        -0.2424172612E-01      0.5937942524E-01
          0                23           2             4    7     1      -0.3823425480E-03       4    7    1        -0.2051690665E-01      0.5025558497E-01
          0                24           2             4    7     1      -0.3236613467E-03       4    7    1        -0.1736784879E-01      0.4254205653E-01
          0                25           2             4    7     1      -0.2740551804E-03       4    7    1        -0.1470581670E-01      0.3602148395E-01
          0                26           2             4    7     1      -0.2320938967E-03       4    7    1        -0.1245405542E-01      0.3050585815E-01
          0                27           2             4    7     1      -0.1965804956E-03       4    7    1        -0.1054832349E-01      0.2583782145E-01
          0                28           2             4    7     1      -0.1665148806E-03       4    7    1        -0.8934947516E-02      0.2188590243E-01
          0                29           2             4    7     1      -0.1410608591E-03       4    7    1        -0.7569050841E-02      0.1854017701E-01
          0                30           2             4    7     1      -0.1195129169E-03       4    7    1        -0.6412770299E-02      0.1570790032E-01
                                                   Max.-Head-Change                         Max.-Flux-Residual
  Residual-Control   Outer-Iter.   Inner-Iter.     Column Row Layer    Maximum-Head-Change  Column Row Layer    Maximum-Flux-Residual          L2-NORM 
          0                31           1             4    7     1      -0.1012629973E-03       4    7    1        -0.5433473498E-02      0.1330914045E-01
          0                32           1             4    7     1      -0.8580283884E-04       4    7    1        -0.4603884096E-02      0.1127708459E-01

    ------------------------------------------------
       NWT REQUIRED           32 OUTER ITERATIONS 
       AND A TOTAL OF         62 INNER ITERATIONS.
    ------------------------------------------------

 NO OUTPUT CONTROL FOR STRESS PERIOD    8   TIME STEP   19
 
 SOLVING FOR HEAD 
                                                   Max.-Head-Change                         Max.-Flux-Residual
  Residual-Control   Outer-Iter.   Inner-Iter.     Column Row Layer    Maximum-Head-Change  Column Row Layer    Maximum-Flux-Residual          L2-NORM 
          0                 1           2             5    8     1       0.1128397785E+00       5    8    1         0.6166562120E+01      0.1429626124E+02
          0                 2           2             5    7     1      -0.1926859429E+00       5    8    1        -0.1060741762E+02      0.2568895473E+02
          0                 3           2             4    7     1      -0.1550775921E-02       4    7    1        -0.8362749727E-01      0.1823775018E+00
          0                 4           2             4    7     1      -0.1191554865E-01       5    8    1        -0.6409541056E+00      0.1568530692E+01
          0                 5           2             4    7     1      -0.8928070382E-02       4    7    1        -0.4791705280E+00      0.1173565337E+01
          0                 6           2             4    7     1      -0.7372702511E-02       5    6    1        -0.3956900039E+00      0.9692371654E+00
          0                 7           2             4    7     1      -0.6080211980E-02       4    7    1        -0.3263180736E+00      0.7993060562E+00
          0                 8           2             4    7     1      -0.5043000964E-02       4    7    1        -0.2706495782E+00      0.6629484740E+00
          0                 9           2             4    7     1      -0.4199016042E-02       4    7    1        -0.2253521752E+00      0.5519937382E+00
          0                10           2             4    7     1      -0.3507272196E-02       4    7    1        -0.1882260000E+00      0.4610542423E+00
                                                   Max.-Head-Change                         Max.-Flux-Residual
  Residual-Control   Outer-Iter.   Inner-Iter.     Column Row Layer    Maximum-Head-Change  Column Row Layer    Maximum-Flux-Residual          L2-NORM 
          0                11           2             4    7     1      -0.2936894883E-02       4    7    1        -0.1576138825E+00      0.3860707365E+00
          0                12           2             4    7     1      -0.2464333501E-02       4    7    1        -0.1322517636E+00      0.3239469500E+00
          0                13           2             4    7     1      -0.2071281961E-02       4    7    1        -0.1111570834E+00      0.2722761315E+00
          0                14           2             4    7     1      -0.1743313879E-02       4    7    1        -0.9355552472E-01      0.2291616136E+00
          0                15           2             4    7     1      -0.1468965267E-02       4    7    1        -0.7883177604E-01      0.1930962089E+00
          0                16           2             4    7     1      -0.1238981356E-02       4    7    1        -0.6648910537E-01      0.1628631868E+00
          0                17           2             4    7     1      -0.1045818483E-02       4    7    1        -0.5612262381E-01      0.1374707837E+00
          0                18           2             4    7     1      -0.8833413556E-03       4    7    1        -0.4740303553E-01      0.1161123987E+00
          0                19           2             4    7     1      -0.7465243840E-03       4    7    1        -0.4006060695E-01      0.9812732736E-01
          0                20           2             4    7     1      -0.6312060548E-03       4    7    1        -0.3387198290E-01      0.8296846753E-01
                                                   Max.-Head-Change                         Max.-Flux-Residual
  Residual-Control   Outer-Iter.   Inner-Iter.     Column Row Layer    Maximum-Head-Change  Column Row Layer    Maximum-Flux-Residual          L2-NORM 
          0                21           2             4    7     1      -0.5339106665E-03       4    7    1        -0.2865061846E-01      0.7017888266E-01
          0                22           2             4    7     1      -0.4517541980E-03       4    7    1        -0.2424172611E-01      0.5937942520E-01
          0                23           2             4    7     1      -0.3823442817E-03       4    7    1        -0.2051690664E-01      0.5025558495E-01
          0                24           2             4    7     1      -0.3236628153E-03       4    7    1        -0.1736784881E-01      0.4254205652E-01
          0                25           2             4    7     1      -0.2740564228E-03       4    7    1        -0.1470581668E-01      0.3602148392E-01
          0                26           2             4    7     1      -0.2320949496E-03       4    7    1        -0.1245405543E-01      0.3050585813E-01
          0                27           2             4    7     1      -0.1965813872E-03       4    7    1        -0.1054832350E-01      0.2583782145E-01
          0                28           2             4    7     1      -0.1665156360E-03       4    7    1        -0.8934947516E-02      0.2188590240E-01
          0                29           2             4    7     1      -0.1410614993E-03       4    7    1        -0.7569050833E-02      0.1854017700E-01
          0                30           2             4    7     1      -0.1195134582E-03       4    7    1        -0.6412770269E-02      0.1570790031E-01
                                                   Max.-Head-Change                         Max.-Flux-Residual
  Residual-Control   Outer-Iter.   Inner-Iter.     Column Row Layer    Maximum-Head-Change  Column Row Layer    Maximum-Flux-Residual          L2-NORM 
          0                31           1             4    7     1      -0.1012634570E-03       4    7    1        -0.5433473508E-02      0.1330914043E-01
          0                32           1             4    7     1      -0.8580322810E-04       4    7    1        -0.4603884082E-02      0.1127708458E-01

    ------------------------------------------------
       NWT REQUIRED           32 OUTER ITERATIONS 
       AND A TOTAL OF         62 INNER ITERATIONS.
    ------------------------------------------------

 NO OUTPUT CONTROL FOR STRESS PERIOD    8   TIME STEP   20
 
 SOLVING FOR HEAD 
                                                   Max.-Head-Change                         Max.-Flux-Residual
  Residual-Control   Outer-Iter.   Inner-Iter.     Column Row Layer    Maximum-Head-Change  Column Row Layer    Maximum-Flux-Residual          L2-NORM 
          0                 1           2             5    8     1       0.1152809667E+00       5    8    1         0.6298821471E+01      0.1463544694E+02
          0                 2           2             5    7     1      -0.1929202149E+00       5    8    1        -0.1062064295E+02      0.2572011591E+02
          0                 3           2             4    7     1      -0.1536283229E-02       4    7    1        -0.8285134216E-01      0.1806375189E+00
          0                 4           2             4    7     1      -0.1191661809E-01       5    8    1        -0.6410186627E+00      0.1568680879E+01
          0                 5           2             4    7     1      -0.8928039983E-02       4    7    1        -0.4791667295E+00      0.1173554844E+01
          0                 6           2             4    7     1      -0.7372741084E-02       5    6    1        -0.3956903212E+00      0.9692378990E+00
          0                 7           2             4    7     1      -0.6080239338E-02       4    7    1        -0.3263180549E+00      0.7993060045E+00
          0                 8           2             4    7     1      -0.5043023968E-02       4    7    1        -0.2706495794E+00      0.6629484773E+00
          0                 9           2             4    7     1      -0.4199035174E-02       4    7    1        -0.2253521751E+00      0.5519937377E+00
          0                10           2             4    7     1      -0.3507288177E-02       4    7    1        -0.1882260000E+00      0.4610542421E+00
                                                   Max.-Head-Change                         Max.-Flux-Residual
  Residual-Control   Outer-Iter.   Inner-Iter.     Column Row Layer    Maximum-Head-Change  Column Row Layer    Maximum-Flux-Residual          L2-NORM 
          0                11           2             4    7     1      -0.2936908266E-02       4    7    1        -0.1576138825E+00      0.3860707363E+00
          0                12           2             4    7     1      -0.2464344730E-02       4    7    1        -0.1322517636E+00      0.3239469499E+00
          0                13           2             4    7     1      -0.2071291400E-02       4    7    1        -0.1111570834E+00      0.2722761314E+00
          0                14           2             4    7     1      -0.1743321823E-02       4    7    1        -0.9355552471E-01      0.2291616136E+00
          0                15           2             4    7     1      -0.1468971960E-02       4    7    1        -0.7883177601E-01      0.1930962089E+00
          0                16           2             4    7     1      -0.1238987001E-02       4    7    1        -0.6648910533E-01      0.1628631867E+00
          0                17           2             4    7     1      -0.1045823249E-02       4    7    1        -0.5612262382E-01      0.1374707836E+00
          0                18           2             4    7     1      -0.8833453807E-03       4    7    1        -0.4740303552E-01      0.1161123987E+00
          0                19           2             4    7     1      -0.7465277856E-03       4    7    1        -0.4006060694E-01      0.9812732733E-01
          0                20           2             4    7     1      -0.6312089309E-03       4    7    1        -0.3387198290E-01      0.8296846750E-01
                                                   Max.-Head-Change                         Max.-Flux-Residual
  Residual-Control   Outer-Iter.   Inner-Iter.     Column Row Layer    Maximum-Head-Change  Column Row Layer    Maximum-Flux-Residual          L2-NORM 
          0                21           2             4    7     1      -0.5339130996E-03       4    7    1        -0.2865061847E-01      0.7017888265E-01
          0                22           2             4    7     1      -0.4517562566E-03       4    7    1        -0.2424172610E-01      0.5937942518E-01
          0                23           2             4    7     1      -0.3823460241E-03       4    7    1        -0.2051690663E-01      0.5025558492E-01
          0                24           2             4    7     1      -0.3236642892E-03       4    7    1        -0.1736784878E-01      0.4254205650E-01
          0                25           2             4    7     1      -0.2740576723E-03       4    7    1        -0.1470581671E-01      0.3602148392E-01
          0                26           2             4    7     1      -0.2320960070E-03       4    7    1        -0.1245405541E-01      0.3050585812E-01
          0                27           2             4    7     1      -0.1965822830E-03       4    7    1        -0.1054832349E-01      0.2583782144E-01
          0                28           2             4    7     1      -0.1665163945E-03       4    7    1        -0.8934947510E-02      0.2188590239E-01
          0                29           2             4    7     1      -0.1410621422E-03       4    7    1        -0.7569050846E-02      0.1854017699E-01
          0                30           2             4    7     1      -0.1195140031E-03       4    7    1        -0.6412770271E-02      0.1570790031E-01
                                                   Max.-Head-Change                         Max.-Flux-Residual
  Residual-Control   Outer-Iter.   Inner-Iter.     Column Row Layer    Maximum-Head-Change  Column Row Layer    Maximum-Flux-Residual          L2-NORM 
          0                31           1             4    7     1      -0.1012639181E-03       4    7    1        -0.5433473501E-02      0.1330914047E-01
          0                32           1             4    7     1      -0.8580361905E-04       4    7    1        -0.4603884092E-02      0.1127708460E-01

    ------------------------------------------------
       NWT REQUIRED           32 OUTER ITERATIONS 
       AND A TOTAL OF         62 INNER ITERATIONS.
    ------------------------------------------------

 NO OUTPUT CONTROL FOR STRESS PERIOD    8   TIME STEP   21
 
 SOLVING FOR HEAD 
                                                   Max.-Head-Change                         Max.-Flux-Residual
  Residual-Control   Outer-Iter.   Inner-Iter.     Column Row Layer    Maximum-Head-Change  Column Row Layer    Maximum-Flux-Residual          L2-NORM 
          0                 1           2             5    8     1       0.1176239916E+00       5    8    1         0.6425659340E+01      0.1496334662E+02
          0                 2           2             5    7     1      -0.1931492453E+00       5    8    1        -0.1063332615E+02      0.2575043593E+02
          0                 3           2             4    7     1      -0.1521840125E-02       4    7    1        -0.8207707170E-01      0.1789491653E+00
          0                 4           2             4    7     1      -0.1191768425E-01       5    8    1        -0.6410805803E+00      0.1568827054E+01
          0                 5           2             4    7     1      -0.8928009981E-02       4    7    1        -0.4791629400E+00      0.1173544632E+01
          0                 6           2             4    7     1      -0.7372779766E-02       5    6    1        -0.3956906261E+00      0.9692386132E+00
          0                 7           2             4    7     1      -0.6080266799E-02       4    7    1        -0.3263180363E+00      0.7993059542E+00
          0                 8           2             4    7     1      -0.5043047058E-02       4    7    1        -0.2706495807E+00      0.6629484807E+00
          0                 9           2             4    7     1      -0.4199054377E-02       4    7    1        -0.2253521750E+00      0.5519937373E+00
          0                10           2             4    7     1      -0.3507304219E-02       4    7    1        -0.1882259999E+00      0.4610542420E+00
                                                   Max.-Head-Change                         Max.-Flux-Residual
  Residual-Control   Outer-Iter.   Inner-Iter.     Column Row Layer    Maximum-Head-Change  Column Row Layer    Maximum-Flux-Residual          L2-NORM 
          0                11           2             4    7     1      -0.2936921698E-02       4    7    1        -0.1576138824E+00      0.3860707362E+00
          0                12           2             4    7     1      -0.2464356001E-02       4    7    1        -0.1322517635E+00      0.3239469498E+00
          0                13           2             4    7     1      -0.2071300873E-02       4    7    1        -0.1111570834E+00      0.2722761314E+00
          0                14           2             4    7     1      -0.1743329796E-02       4    7    1        -0.9355552470E-01      0.2291616135E+00
          0                15           2             4    7     1      -0.1468978679E-02       4    7    1        -0.7883177601E-01      0.1930962088E+00
          0                16           2             4    7     1      -0.1238992668E-02       4    7    1        -0.6648910532E-01      0.1628631867E+00
          0                17           2             4    7     1      -0.1045828033E-02       4    7    1        -0.5612262379E-01      0.1374707836E+00
          0                18           2             4    7     1      -0.8833494206E-03       4    7    1        -0.4740303550E-01      0.1161123986E+00
          0                19           2             4    7     1      -0.7465312001E-03       4    7    1        -0.4006060693E-01      0.9812732729E-01
          0                20           2             4    7     1      -0.6312118180E-03       4    7    1        -0.3387198289E-01      0.8296846747E-01
                                                   Max.-Head-Change                         Max.-Flux-Residual
  Residual-Control   Outer-Iter.   Inner-Iter.     Column Row Layer    Maximum-Head-Change  Column Row Layer    Maximum-Flux-Residual          L2-NORM 
          0                21           2             4    7     1      -0.5339155416E-03       4    7    1        -0.2865061845E-01      0.7017888261E-01
          0                22           2             4    7     1      -0.4517583223E-03       4    7    1        -0.2424172608E-01      0.5937942515E-01
          0                23           2             4    7     1      -0.3823477731E-03       4    7    1        -0.2051690664E-01      0.5025558491E-01
          0                24           2             4    7     1      -0.3236657699E-03       4    7    1        -0.1736784878E-01      0.4254205648E-01
          0                25           2             4    7     1      -0.2740589252E-03       4    7    1        -0.1470581669E-01      0.3602148389E-01
          0                26           2             4    7     1      -0.2320970690E-03       4    7    1        -0.1245405543E-01      0.3050585813E-01
          0                27           2             4    7     1      -0.1965831821E-03       4    7    1        -0.1054832349E-01      0.2583782143E-01
          0                28           2             4    7     1      -0.1665171559E-03       4    7    1        -0.8934947498E-02      0.2188590238E-01
          0                29           2             4    7     1      -0.1410627871E-03       4    7    1        -0.7569050840E-02      0.1854017699E-01
          0                30           2             4    7     1      -0.1195145499E-03       4    7    1        -0.6412770286E-02      0.1570790032E-01
                                                   Max.-Head-Change                         Max.-Flux-Residual
  Residual-Control   Outer-Iter.   Inner-Iter.     Column Row Layer    Maximum-Head-Change  Column Row Layer    Maximum-Flux-Residual          L2-NORM 
          0                31           1             4    7     1      -0.1012643815E-03       4    7    1        -0.5433473503E-02      0.1330914042E-01
          0                32           1             4    7     1      -0.8580401134E-04       4    7    1        -0.4603884079E-02      0.1127708457E-01

    ------------------------------------------------
       NWT REQUIRED           32 OUTER ITERATIONS 
       AND A TOTAL OF         62 INNER ITERATIONS.
    ------------------------------------------------

 NO OUTPUT CONTROL FOR STRESS PERIOD    8   TIME STEP   22
 
 SOLVING FOR HEAD 
                                                   Max.-Head-Change                         Max.-Flux-Residual
  Residual-Control   Outer-Iter.   Inner-Iter.     Column Row Layer    Maximum-Head-Change  Column Row Layer    Maximum-Flux-Residual          L2-NORM 
          0                 1           2             5    8     1       0.1198746374E+00       5    8    1         0.6547398996E+01      0.1528051807E+02
          0                 2           2             5    7     1      -0.1933731446E+00       5    8    1        -0.1064549954E+02      0.2577994684E+02
          0                 3           2             4    7     1      -0.1507461479E-02       4    7    1        -0.8130554873E-01      0.1773099847E+00
          0                 4           2             4    7     1      -0.1191874605E-01       5    8    1        -0.6411400156E+00      0.1568969370E+01
          0                 5           2             4    7     1      -0.8927980400E-02       4    7    1        -0.4791591638E+00      0.1173534688E+01
          0                 6           2             4    7     1      -0.7372818513E-02       5    6    1        -0.3956909194E+00      0.9692393087E+00
          0                 7           2             4    7     1      -0.6080294336E-02       4    7    1        -0.3263180177E+00      0.7993059054E+00
          0                 8           2             4    7     1      -0.5043070208E-02       4    7    1        -0.2706495820E+00      0.6629484839E+00
          0                 9           2             4    7     1      -0.4199073632E-02       4    7    1        -0.2253521748E+00      0.5519937369E+00
          0                10           2             4    7     1      -0.3507320302E-02       4    7    1        -0.1882259999E+00      0.4610542419E+00
                                                   Max.-Head-Change                         Max.-Flux-Residual
  Residual-Control   Outer-Iter.   Inner-Iter.     Column Row Layer    Maximum-Head-Change  Column Row Layer    Maximum-Flux-Residual          L2-NORM 
          0                11           2             4    7     1      -0.2936935166E-02       4    7    1        -0.1576138824E+00      0.3860707361E+00
          0                12           2             4    7     1      -0.2464367302E-02       4    7    1        -0.1322517635E+00      0.3239469497E+00
          0                13           2             4    7     1      -0.2071310372E-02       4    7    1        -0.1111570834E+00      0.2722761313E+00
          0                14           2             4    7     1      -0.1743337791E-02       4    7    1        -0.9355552468E-01      0.2291616134E+00
          0                15           2             4    7     1      -0.1468985416E-02       4    7    1        -0.7883177600E-01      0.1930962088E+00
          0                16           2             4    7     1      -0.1238998350E-02       4    7    1        -0.6648910531E-01      0.1628631867E+00
          0                17           2             4    7     1      -0.1045832829E-02       4    7    1        -0.5612262380E-01      0.1374707835E+00
          0                18           2             4    7     1      -0.8833534712E-03       4    7    1        -0.4740303548E-01      0.1161123986E+00
          0                19           2             4    7     1      -0.7465346235E-03       4    7    1        -0.4006060694E-01      0.9812732727E-01
          0                20           2             4    7     1      -0.6312147129E-03       4    7    1        -0.3387198289E-01      0.8296846746E-01
                                                   Max.-Head-Change                         Max.-Flux-Residual
  Residual-Control   Outer-Iter.   Inner-Iter.     Column Row Layer    Maximum-Head-Change  Column Row Layer    Maximum-Flux-Residual          L2-NORM 
          0                21           2             4    7     1      -0.5339179894E-03       4    7    1        -0.2865061843E-01      0.7017888259E-01
          0                22           2             4    7     1      -0.4517603944E-03       4    7    1        -0.2424172610E-01      0.5937942515E-01
          0                23           2             4    7     1      -0.3823495262E-03       4    7    1        -0.2051690663E-01      0.5025558489E-01
          0                24           2             4    7     1      -0.3236672543E-03       4    7    1        -0.1736784879E-01      0.4254205647E-01
          0                25           2             4    7     1      -0.2740601820E-03       4    7    1        -0.1470581668E-01      0.3602148389E-01
          0                26           2             4    7     1      -0.2320981331E-03       4    7    1        -0.1245405541E-01      0.3050585810E-01
          0                27           2             4    7     1      -0.1965840835E-03       4    7    1        -0.1054832348E-01      0.2583782142E-01
          0                28           2             4    7     1      -0.1665179197E-03       4    7    1        -0.8934947501E-02      0.2188590238E-01
          0                29           2             4    7     1      -0.1410634340E-03       4    7    1        -0.7569050836E-02      0.1854017697E-01
          0                30           2             4    7     1      -0.1195150978E-03       4    7    1        -0.6412770277E-02      0.1570790029E-01
                                                   Max.-Head-Change                         Max.-Flux-Residual
  Residual-Control   Outer-Iter.   Inner-Iter.     Column Row Layer    Maximum-Head-Change  Column Row Layer    Maximum-Flux-Residual          L2-NORM 
          0                31           1             4    7     1      -0.1012648457E-03       4    7    1        -0.5433473495E-02      0.1330914042E-01
          0                32           1             4    7     1      -0.8580440510E-04       4    7    1        -0.4603884087E-02      0.1127708454E-01

    ------------------------------------------------
       NWT REQUIRED           32 OUTER ITERATIONS 
       AND A TOTAL OF         62 INNER ITERATIONS.
    ------------------------------------------------

 NO OUTPUT CONTROL FOR STRESS PERIOD    8   TIME STEP   23
 
 SOLVING FOR HEAD 
                                                   Max.-Head-Change                         Max.-Flux-Residual
  Residual-Control   Outer-Iter.   Inner-Iter.     Column Row Layer    Maximum-Head-Change  Column Row Layer    Maximum-Flux-Residual          L2-NORM 
          0                 1           2             5    8     1       0.1220381378E+00       5    8    1         0.6664332533E+01      0.1558746798E+02
          0                 2           2             5    7     1      -0.1935920396E+00       5    8    1        -0.1065719232E+02      0.2580867891E+02
          0                 3           2             4    7     1      -0.1493159060E-02       4    7    1        -0.8053746361E-01      0.1757176024E+00
          0                 4           2             4    7     1      -0.1191980260E-01       5    8    1        -0.6411971108E+00      0.1569107974E+01
          0                 5           2             4    7     1      -0.8927951265E-02       4    7    1        -0.4791554044E+00      0.1173525003E+01
          0                 6           2             4    7     1      -0.7372857293E-02       5    6    1        -0.3956912017E+00      0.9692399861E+00
          0                 7           2             4    7     1      -0.6080321922E-02       4    7    1        -0.3263179992E+00      0.7993058578E+00
          0                 8           2             4    7     1      -0.5043093398E-02       4    7    1        -0.2706495832E+00      0.6629484871E+00
          0                 9           2             4    7     1      -0.4199092918E-02       4    7    1        -0.2253521747E+00      0.5519937366E+00
          0                10           2             4    7     1      -0.3507336413E-02       4    7    1        -0.1882259999E+00      0.4610542419E+00
                                                   Max.-Head-Change                         Max.-Flux-Residual
  Residual-Control   Outer-Iter.   Inner-Iter.     Column Row Layer    Maximum-Head-Change  Column Row Layer    Maximum-Flux-Residual          L2-NORM 
          0                11           2             4    7     1      -0.2936948657E-02       4    7    1        -0.1576138824E+00      0.3860707361E+00
          0                12           2             4    7     1      -0.2464378622E-02       4    7    1        -0.1322517635E+00      0.3239469497E+00
          0                13           2             4    7     1      -0.2071319886E-02       4    7    1        -0.1111570834E+00      0.2722761313E+00
          0                14           2             4    7     1      -0.1743345799E-02       4    7    1        -0.9355552466E-01      0.2291616135E+00
          0                15           2             4    7     1      -0.1468992163E-02       4    7    1        -0.7883177599E-01      0.1930962088E+00
          0                16           2             4    7     1      -0.1239004041E-02       4    7    1        -0.6648910530E-01      0.1628631867E+00
          0                17           2             4    7     1      -0.1045837632E-02       4    7    1        -0.5612262376E-01      0.1374707836E+00
          0                18           2             4    7     1      -0.8833575295E-03       4    7    1        -0.4740303551E-01      0.1161123987E+00
          0                19           2             4    7     1      -0.7465380526E-03       4    7    1        -0.4006060693E-01      0.9812732739E-01
          0                20           2             4    7     1      -0.6312176123E-03       4    7    1        -0.3387198289E-01      0.8296846759E-01
                                                   Max.-Head-Change                         Max.-Flux-Residual
  Residual-Control   Outer-Iter.   Inner-Iter.     Column Row Layer    Maximum-Head-Change  Column Row Layer    Maximum-Flux-Residual          L2-NORM 
          0                21           2             4    7     1      -0.5339204426E-03       4    7    1        -0.2865061844E-01      0.7017888276E-01
          0                22           2             4    7     1      -0.4517624692E-03       4    7    1        -0.2424172608E-01      0.5937942531E-01
          0                23           2             4    7     1      -0.3823512826E-03       4    7    1        -0.2051690663E-01      0.5025558510E-01
          0                24           2             4    7     1      -0.3236687408E-03       4    7    1        -0.1736784878E-01      0.4254205651E-01
          0                25           2             4    7     1      -0.2740614411E-03       4    7    1        -0.1470581669E-01      0.3602148430E-01
          0                26           2             4    7     1      -0.2320991992E-03       4    7    1        -0.1245405542E-01      0.3050585831E-01
          0                27           2             4    7     1      -0.1965849868E-03       4    7    1        -0.1054832349E-01      0.2583782150E-01
          0                28           2             4    7     1      -0.1665186843E-03       4    7    1        -0.8934947491E-02      0.2188590240E-01
          0                29           2             4    7     1      -0.1410640823E-03       4    7    1        -0.7569050847E-02      0.1854017777E-01
          0                30           2             4    7     1      -0.1195156467E-03       4    7    1        -0.6412770268E-02      0.1570790081E-01
                                                   Max.-Head-Change                         Max.-Flux-Residual
  Residual-Control   Outer-Iter.   Inner-Iter.     Column Row Layer    Maximum-Head-Change  Column Row Layer    Maximum-Flux-Residual          L2-NORM 
          0                31           1             4    7     1      -0.1012653106E-03       4    7    1        -0.5433473499E-02      0.1330914051E-01
          0                32           1             4    7     1      -0.8580479982E-04       4    7    1        -0.4603884101E-02      0.1127708576E-01

    ------------------------------------------------
       NWT REQUIRED           32 OUTER ITERATIONS 
       AND A TOTAL OF         62 INNER ITERATIONS.
    ------------------------------------------------

 NO OUTPUT CONTROL FOR STRESS PERIOD    8   TIME STEP   24
 
 SOLVING FOR HEAD 
                                                   Max.-Head-Change                         Max.-Flux-Residual
  Residual-Control   Outer-Iter.   Inner-Iter.     Column Row Layer    Maximum-Head-Change  Column Row Layer    Maximum-Flux-Residual          L2-NORM 
          0                 1           2             5    8     1       0.1241196377E+00       5    8    1         0.6776746992E+01      0.1588470594E+02
          0                 2           2             5    7     1      -0.1938060148E+00       5    8    1        -0.1066843322E+02      0.2583666288E+02
          0                 3           2             4    7     1      -0.1478942658E-02       4    7    1        -0.7977339263E-01      0.1741697998E+00
          0                 4           2             4    7     1      -0.1192085319E-01       5    8    1        -0.6412520054E+00      0.1569243012E+01
          0                 5           2             4    7     1      -0.8927922589E-02       4    7    1        -0.4791516644E+00      0.1173515567E+01
          0                 6           2             4    7     1      -0.7372896076E-02       5    6    1        -0.3956914736E+00      0.9692406463E+00
          0                 7           2             4    7     1      -0.6080349536E-02       4    7    1        -0.3263179808E+00      0.7993058115E+00
          0                 8           2             4    7     1      -0.5043116609E-02       4    7    1        -0.2706495845E+00      0.6629484903E+00
          0                 9           2             4    7     1      -0.4199112223E-02       4    7    1        -0.2253521746E+00      0.5519937363E+00
          0                10           2             4    7     1      -0.3507352540E-02       4    7    1        -0.1882259999E+00      0.4610542418E+00
                                                   Max.-Head-Change                         Max.-Flux-Residual
  Residual-Control   Outer-Iter.   Inner-Iter.     Column Row Layer    Maximum-Head-Change  Column Row Layer    Maximum-Flux-Residual          L2-NORM 
          0                11           2             4    7     1      -0.2936962161E-02       4    7    1        -0.1576138824E+00      0.3860707360E+00
          0                12           2             4    7     1      -0.2464389953E-02       4    7    1        -0.1322517635E+00      0.3239469496E+00
          0                13           2             4    7     1      -0.2071329410E-02       4    7    1        -0.1111570833E+00      0.2722761312E+00
          0                14           2             4    7     1      -0.1743353814E-02       4    7    1        -0.9355552465E-01      0.2291616134E+00
          0                15           2             4    7     1      -0.1468998917E-02       4    7    1        -0.7883177598E-01      0.1930962087E+00
          0                16           2             4    7     1      -0.1239009738E-02       4    7    1        -0.6648910530E-01      0.1628631866E+00
          0                17           2             4    7     1      -0.1045842441E-02       4    7    1        -0.5612262377E-01      0.1374707835E+00
          0                18           2             4    7     1      -0.8833615910E-03       4    7    1        -0.4740303549E-01      0.1161123986E+00
          0                19           2             4    7     1      -0.7465414851E-03       4    7    1        -0.4006060692E-01      0.9812732726E-01
          0                20           2             4    7     1      -0.6312205143E-03       4    7    1        -0.3387198288E-01      0.8296846744E-01
                                                   Max.-Head-Change                         Max.-Flux-Residual
  Residual-Control   Outer-Iter.   Inner-Iter.     Column Row Layer    Maximum-Head-Change  Column Row Layer    Maximum-Flux-Residual          L2-NORM 
          0                21           2             4    7     1      -0.5339228974E-03       4    7    1        -0.2865061845E-01      0.7017888260E-01
          0                22           2             4    7     1      -0.4517645468E-03       4    7    1        -0.2424172609E-01      0.5937942513E-01
          0                23           2             4    7     1      -0.3823530404E-03       4    7    1        -0.2051690661E-01      0.5025558489E-01
          0                24           2             4    7     1      -0.3236702291E-03       4    7    1        -0.1736784878E-01      0.4254205647E-01
          0                25           2             4    7     1      -0.2740627012E-03       4    7    1        -0.1470581668E-01      0.3602148389E-01
          0                26           2             4    7     1      -0.2321002663E-03       4    7    1        -0.1245405540E-01      0.3050585809E-01
          0                27           2             4    7     1      -0.1965858903E-03       4    7    1        -0.1054832348E-01      0.2583782142E-01
          0                28           2             4    7     1      -0.1665194500E-03       4    7    1        -0.8934947502E-02      0.2188590238E-01
          0                29           2             4    7     1      -0.1410647309E-03       4    7    1        -0.7569050853E-02      0.1854017699E-01
          0                30           2             4    7     1      -0.1195161963E-03       4    7    1        -0.6412770282E-02      0.1570790029E-01
                                                   Max.-Head-Change                         Max.-Flux-Residual
  Residual-Control   Outer-Iter.   Inner-Iter.     Column Row Layer    Maximum-Head-Change  Column Row Layer    Maximum-Flux-Residual          L2-NORM 
          0                31           1             4    7     1      -0.1012657766E-03       4    7    1        -0.5433473507E-02      0.1330914042E-01
          0                32           1             4    7     1      -0.8580519394E-04       4    7    1        -0.4603884085E-02      0.1127708457E-01

    ------------------------------------------------
       NWT REQUIRED           32 OUTER ITERATIONS 
       AND A TOTAL OF         62 INNER ITERATIONS.
    ------------------------------------------------

 NO OUTPUT CONTROL FOR STRESS PERIOD    8   TIME STEP   25
 
 SOLVING FOR HEAD 
                                                   Max.-Head-Change                         Max.-Flux-Residual
  Residual-Control   Outer-Iter.   Inner-Iter.     Column Row Layer    Maximum-Head-Change  Column Row Layer    Maximum-Flux-Residual          L2-NORM 
          0                 1           2             5    8     1       0.1261236426E+00       5    8    1         0.6884893484E+01      0.1617267600E+02
          0                 2           2             5    7     1      -0.1940152141E+00       5    8    1        -0.1067924733E+02      0.2586392585E+02
          0                 3           2             4    7     1      -0.1464823800E-02       4    7    1        -0.7901401071E-01      0.1726645554E+00
          0                 4           2             4    7     1      -0.1192189695E-01       5    8    1        -0.6413048218E+00      0.1569374614E+01
          0                 5           2             4    7     1      -0.8927894393E-02       4    7    1        -0.4791479473E+00      0.1173506370E+01
          0                 6           2             4    7     1      -0.7372934826E-02       5    6    1        -0.3956917356E+00      0.9692412898E+00
          0                 7           2             4    7     1      -0.6080377155E-02       4    7    1        -0.3263179626E+00      0.7993057665E+00
          0                 8           2             4    7     1      -0.5043139822E-02       4    7    1        -0.2706495857E+00      0.6629484935E+00
          0                 9           2             4    7     1      -0.4199131530E-02       4    7    1        -0.2253521745E+00      0.5519937361E+00
          0                10           2             4    7     1      -0.3507368667E-02       4    7    1        -0.1882259998E+00      0.4610542419E+00
                                                   Max.-Head-Change                         Max.-Flux-Residual
  Residual-Control   Outer-Iter.   Inner-Iter.     Column Row Layer    Maximum-Head-Change  Column Row Layer    Maximum-Flux-Residual          L2-NORM 
          0                11           2             4    7     1      -0.2936975665E-02       4    7    1        -0.1576138824E+00      0.3860707360E+00
          0                12           2             4    7     1      -0.2464401285E-02       4    7    1        -0.1322517635E+00      0.3239469497E+00
          0                13           2             4    7     1      -0.2071338934E-02       4    7    1        -0.1111570833E+00      0.2722761312E+00
          0                14           2             4    7     1      -0.1743361831E-02       4    7    1        -0.9355552463E-01      0.2291616134E+00
          0                15           2             4    7     1      -0.1469005672E-02       4    7    1        -0.7883177595E-01      0.1930962087E+00
          0                16           2             4    7     1      -0.1239015435E-02       4    7    1        -0.6648910530E-01      0.1628631866E+00
          0                17           2             4    7     1      -0.1045847250E-02       4    7    1        -0.5612262375E-01      0.1374707835E+00
          0                18           2             4    7     1      -0.8833656526E-03       4    7    1        -0.4740303547E-01      0.1161123986E+00
          0                19           2             4    7     1      -0.7465449174E-03       4    7    1        -0.4006060690E-01      0.9812732725E-01
          0                20           2             4    7     1      -0.6312234171E-03       4    7    1        -0.3387198289E-01      0.8296846745E-01
                                                   Max.-Head-Change                         Max.-Flux-Residual
  Residual-Control   Outer-Iter.   Inner-Iter.     Column Row Layer    Maximum-Head-Change  Column Row Layer    Maximum-Flux-Residual          L2-NORM 
          0                21           2             4    7     1      -0.5339253524E-03       4    7    1        -0.2865061844E-01      0.7017888260E-01
          0                22           2             4    7     1      -0.4517666238E-03       4    7    1        -0.2424172608E-01      0.5937942515E-01
          0                23           2             4    7     1      -0.3823547985E-03       4    7    1        -0.2051690663E-01      0.5025558490E-01
          0                24           2             4    7     1      -0.3236717177E-03       4    7    1        -0.1736784879E-01      0.4254205650E-01
          0                25           2             4    7     1      -0.2740639612E-03       4    7    1        -0.1470581668E-01      0.3602148388E-01
          0                26           2             4    7     1      -0.2321013340E-03       4    7    1        -0.1245405541E-01      0.3050585809E-01
          0                27           2             4    7     1      -0.1965867939E-03       4    7    1        -0.1054832346E-01      0.2583782140E-01
          0                28           2             4    7     1      -0.1665202161E-03       4    7    1        -0.8934947505E-02      0.2188590241E-01
          0                29           2             4    7     1      -0.1410653791E-03       4    7    1        -0.7569050832E-02      0.1854017701E-01
          0                30           2             4    7     1      -0.1195167458E-03       4    7    1        -0.6412770279E-02      0.1570790069E-01
                                                   Max.-Head-Change                         Max.-Flux-Residual
  Residual-Control   Outer-Iter.   Inner-Iter.     Column Row Layer    Maximum-Head-Change  Column Row Layer    Maximum-Flux-Residual          L2-NORM 
          0                31           1             4    7     1      -0.1012662422E-03       4    7    1        -0.5433473505E-02      0.1330914056E-01
          0                32           1             4    7     1      -0.8580558855E-04       4    7    1        -0.4603884088E-02      0.1127708468E-01

    ------------------------------------------------
       NWT REQUIRED           32 OUTER ITERATIONS 
       AND A TOTAL OF         62 INNER ITERATIONS.
    ------------------------------------------------

 NO OUTPUT CONTROL FOR STRESS PERIOD    8   TIME STEP   26
 
 SOLVING FOR HEAD 
                                                   Max.-Head-Change                         Max.-Flux-Residual
  Residual-Control   Outer-Iter.   Inner-Iter.     Column Row Layer    Maximum-Head-Change  Column Row Layer    Maximum-Flux-Residual          L2-NORM 
          0                 1           2             5    8     1       0.1280544916E+00       5    8    1         0.6989013462E+01      0.1645182871E+02
          0                 2           2             5    7     1      -0.1942197652E+00       5    8    1        -0.1068965880E+02      0.2589049574E+02
          0                 3           2             4    7     1      -0.1450809319E-02       4    7    1        -0.7825972812E-01      0.1711999231E+00
          0                 4           2             4    7     1      -0.1192293337E-01       5    8    1        -0.6413556773E+00      0.1569502913E+01
          0                 5           2             4    7     1      -0.8927866689E-02       4    7    1        -0.4791442550E+00      0.1173497404E+01
          0                 6           2             4    7     1      -0.7372973524E-02       5    6    1        -0.3956919882E+00      0.9692419173E+00
          0                 7           2             4    7     1      -0.6080404761E-02       4    7    1        -0.3263179445E+00      0.7993057226E+00
          0                 8           2             4    7     1      -0.5043163023E-02       4    7    1        -0.2706495870E+00      0.6629484966E+00
          0                 9           2             4    7     1      -0.4199150826E-02       4    7    1        -0.2253521744E+00      0.5519937359E+00
          0                10           2             4    7     1      -0.3507384786E-02       4    7    1        -0.1882259998E+00      0.4610542419E+00
                                                   Max.-Head-Change                         Max.-Flux-Residual
  Residual-Control   Outer-Iter.   Inner-Iter.     Column Row Layer    Maximum-Head-Change  Column Row Layer    Maximum-Flux-Residual          L2-NORM 
          0                11           2             4    7     1      -0.2936989163E-02       4    7    1        -0.1576138823E+00      0.3860707360E+00
          0                12           2             4    7     1      -0.2464412610E-02       4    7    1        -0.1322517635E+00      0.3239469497E+00
          0                13           2             4    7     1      -0.2071348453E-02       4    7    1        -0.1111570833E+00      0.2722761313E+00
          0                14           2             4    7     1      -0.1743369843E-02       4    7    1        -0.9355552464E-01      0.2291616134E+00
          0                15           2             4    7     1      -0.1469012423E-02       4    7    1        -0.7883177595E-01      0.1930962087E+00
          0                16           2             4    7     1      -0.1239021129E-02       4    7    1        -0.6648910529E-01      0.1628631866E+00
          0                17           2             4    7     1      -0.1045852056E-02       4    7    1        -0.5612262376E-01      0.1374707835E+00
          0                18           2             4    7     1      -0.8833697123E-03       4    7    1        -0.4740303548E-01      0.1161123986E+00
          0                19           2             4    7     1      -0.7465483487E-03       4    7    1        -0.4006060691E-01      0.9812732727E-01
          0                20           2             4    7     1      -0.6312263178E-03       4    7    1        -0.3387198287E-01      0.8296846744E-01
                                                   Max.-Head-Change                         Max.-Flux-Residual
  Residual-Control   Outer-Iter.   Inner-Iter.     Column Row Layer    Maximum-Head-Change  Column Row Layer    Maximum-Flux-Residual          L2-NORM 
          0                21           2             4    7     1      -0.5339278063E-03       4    7    1        -0.2865061843E-01      0.7017888259E-01
          0                22           2             4    7     1      -0.4517686998E-03       4    7    1        -0.2424172607E-01      0.5937942514E-01
          0                23           2             4    7     1      -0.3823565559E-03       4    7    1        -0.2051690662E-01      0.5025558488E-01
          0                24           2             4    7     1      -0.3236732050E-03       4    7    1        -0.1736784878E-01      0.4254205648E-01
          0                25           2             4    7     1      -0.2740652207E-03       4    7    1        -0.1470581668E-01      0.3602148388E-01
          0                26           2             4    7     1      -0.2321024004E-03       4    7    1        -0.1245405542E-01      0.3050585810E-01
          0                27           2             4    7     1      -0.1965876978E-03       4    7    1        -0.1054832348E-01      0.2583782142E-01
          0                28           2             4    7     1      -0.1665209810E-03       4    7    1        -0.8934947497E-02      0.2188590237E-01
          0                29           2             4    7     1      -0.1410660278E-03       4    7    1        -0.7569050848E-02      0.1854017700E-01
          0                30           2             4    7     1      -0.1195172952E-03       4    7    1        -0.6412770273E-02      0.1570790029E-01
                                                   Max.-Head-Change                         Max.-Flux-Residual
  Residual-Control   Outer-Iter.   Inner-Iter.     Column Row Layer    Maximum-Head-Change  Column Row Layer    Maximum-Flux-Residual          L2-NORM 
          0                31           1             4    7     1      -0.1012667072E-03       4    7    1        -0.5433473494E-02      0.1330914042E-01
          0                32           1             4    7     1      -0.8580598279E-04       4    7    1        -0.4603884093E-02      0.1127708456E-01

    ------------------------------------------------
       NWT REQUIRED           32 OUTER ITERATIONS 
       AND A TOTAL OF         62 INNER ITERATIONS.
    ------------------------------------------------

 NO OUTPUT CONTROL FOR STRESS PERIOD    8   TIME STEP   27
 
 SOLVING FOR HEAD 
                                                   Max.-Head-Change                         Max.-Flux-Residual
  Residual-Control   Outer-Iter.   Inner-Iter.     Column Row Layer    Maximum-Head-Change  Column Row Layer    Maximum-Flux-Residual          L2-NORM 
          0                 1           2             5    8     1       0.1299160721E+00       5    8    1         0.7089324114E+01      0.1672255476E+02
          0                 2           2             5    7     1      -0.1944197505E+00       5    8    1        -0.1069968935E+02      0.2591639607E+02
          0                 3           2             4    7     1      -0.1436908938E-02       4    7    1        -0.7751111300E-01      0.1697742768E+00
          0                 4           2             4    7     1      -0.1192396174E-01       5    8    1        -0.6414046776E+00      0.1569628022E+01
          0                 5           2             4    7     1      -0.8927839491E-02       4    7    1        -0.4791405904E+00      0.1173488660E+01
          0                 6           2             4    7     1      -0.7373012138E-02       5    6    1        -0.3956922319E+00      0.9692425293E+00
          0                 7           2             4    7     1      -0.6080432334E-02       4    7    1        -0.3263179265E+00      0.7993056799E+00
          0                 8           2             4    7     1      -0.5043186193E-02       4    7    1        -0.2706495882E+00      0.6629484997E+00
          0                 9           2             4    7     1      -0.4199170097E-02       4    7    1        -0.2253521743E+00      0.5519937358E+00
          0                10           2             4    7     1      -0.3507400884E-02       4    7    1        -0.1882259998E+00      0.4610542420E+00
                                                   Max.-Head-Change                         Max.-Flux-Residual
  Residual-Control   Outer-Iter.   Inner-Iter.     Column Row Layer    Maximum-Head-Change  Column Row Layer    Maximum-Flux-Residual          L2-NORM 
          0                11           2             4    7     1      -0.2937002643E-02       4    7    1        -0.1576138823E+00      0.3860707361E+00
          0                12           2             4    7     1      -0.2464423921E-02       4    7    1        -0.1322517634E+00      0.3239469497E+00
          0                13           2             4    7     1      -0.2071357961E-02       4    7    1        -0.1111570833E+00      0.2722761313E+00
          0                14           2             4    7     1      -0.1743377844E-02       4    7    1        -0.9355552462E-01      0.2291616134E+00
          0                15           2             4    7     1      -0.1469019166E-02       4    7    1        -0.7883177595E-01      0.1930962088E+00
          0                16           2             4    7     1      -0.1239026816E-02       4    7    1        -0.6648910528E-01      0.1628631867E+00
          0                17           2             4    7     1      -0.1045856856E-02       4    7    1        -0.5612262374E-01      0.1374707835E+00
          0                18           2             4    7     1      -0.8833737666E-03       4    7    1        -0.4740303547E-01      0.1161123986E+00
          0                19           2             4    7     1      -0.7465517752E-03       4    7    1        -0.4006060691E-01      0.9812732728E-01
          0                20           2             4    7     1      -0.6312292151E-03       4    7    1        -0.3387198286E-01      0.8296846747E-01
                                                   Max.-Head-Change                         Max.-Flux-Residual
  Residual-Control   Outer-Iter.   Inner-Iter.     Column Row Layer    Maximum-Head-Change  Column Row Layer    Maximum-Flux-Residual          L2-NORM 
          0                21           2             4    7     1      -0.5339302565E-03       4    7    1        -0.2865061842E-01      0.7017888260E-01
          0                22           2             4    7     1      -0.4517707737E-03       4    7    1        -0.2424172608E-01      0.5937942515E-01
          0                23           2             4    7     1      -0.3823583107E-03       4    7    1        -0.2051690660E-01      0.5025558490E-01
          0                24           2             4    7     1      -0.3236746903E-03       4    7    1        -0.1736784876E-01      0.4254205649E-01
          0                25           2             4    7     1      -0.2740664790E-03       4    7    1        -0.1470581669E-01      0.3602148390E-01
          0                26           2             4    7     1      -0.2321034657E-03       4    7    1        -0.1245405540E-01      0.3050585810E-01
          0                27           2             4    7     1      -0.1965886000E-03       4    7    1        -0.1054832347E-01      0.2583782141E-01
          0                28           2             4    7     1      -0.1665217451E-03       4    7    1        -0.8934947491E-02      0.2188590238E-01
          0                29           2             4    7     1      -0.1410666754E-03       4    7    1        -0.7569050844E-02      0.1854017699E-01
          0                30           2             4    7     1      -0.1195178434E-03       4    7    1        -0.6412770264E-02      0.1570790030E-01
                                                   Max.-Head-Change                         Max.-Flux-Residual
  Residual-Control   Outer-Iter.   Inner-Iter.     Column Row Layer    Maximum-Head-Change  Column Row Layer    Maximum-Flux-Residual          L2-NORM 
          0                31           1             4    7     1      -0.1012671723E-03       4    7    1        -0.5433473501E-02      0.1330914043E-01
          0                32           1             4    7     1      -0.8580637654E-04       4    7    1        -0.4603884090E-02      0.1127708457E-01

    ------------------------------------------------
       NWT REQUIRED           32 OUTER ITERATIONS 
       AND A TOTAL OF         62 INNER ITERATIONS.
    ------------------------------------------------

 NO OUTPUT CONTROL FOR STRESS PERIOD    8   TIME STEP   28
 
 SOLVING FOR HEAD 
                                                   Max.-Head-Change                         Max.-Flux-Residual
  Residual-Control   Outer-Iter.   Inner-Iter.     Column Row Layer    Maximum-Head-Change  Column Row Layer    Maximum-Flux-Residual          L2-NORM 
          0                 1           2             5    8     1       0.1317122998E+00       5    8    1         0.7186042640E+01      0.1698524283E+02
          0                 2           2             5    7     1      -0.1946153123E+00       5    8    1        -0.1070936070E+02      0.2594165256E+02
          0                 3           2             4    7     1      -0.1423128736E-02       4    7    1        -0.7676853086E-01      0.1683857975E+00
          0                 4           2             4    7     1      -0.1192498159E-01       5    8    1        -0.6414519286E+00      0.1569750062E+01
          0                 5           2             4    7     1      -0.8927812807E-02       4    7    1        -0.4791369551E+00      0.1173480130E+01
          0                 6           2             4    7     1      -0.7373050650E-02       5    6    1        -0.3956924673E+00      0.9692431265E+00
          0                 7           2             4    7     1      -0.6080459859E-02       4    7    1        -0.3263179086E+00      0.7993056383E+00
          0                 8           2             4    7     1      -0.5043209320E-02       4    7    1        -0.2706495894E+00      0.6629485028E+00
          0                 9           2             4    7     1      -0.4199189334E-02       4    7    1        -0.2253521741E+00      0.5519937357E+00
          0                10           2             4    7     1      -0.3507416953E-02       4    7    1        -0.1882259998E+00      0.4610542421E+00
                                                   Max.-Head-Change                         Max.-Flux-Residual
  Residual-Control   Outer-Iter.   Inner-Iter.     Column Row Layer    Maximum-Head-Change  Column Row Layer    Maximum-Flux-Residual          L2-NORM 
          0                11           2             4    7     1      -0.2937016098E-02       4    7    1        -0.1576138823E+00      0.3860707362E+00
          0                12           2             4    7     1      -0.2464435212E-02       4    7    1        -0.1322517634E+00      0.3239469498E+00
          0                13           2             4    7     1      -0.2071367450E-02       4    7    1        -0.1111570833E+00      0.2722761314E+00
          0                14           2             4    7     1      -0.1743385831E-02       4    7    1        -0.9355552461E-01      0.2291616135E+00
          0                15           2             4    7     1      -0.1469025896E-02       4    7    1        -0.7883177594E-01      0.1930962088E+00
          0                16           2             4    7     1      -0.1239032493E-02       4    7    1        -0.6648910525E-01      0.1628631867E+00
          0                17           2             4    7     1      -0.1045861648E-02       4    7    1        -0.5612262374E-01      0.1374707836E+00
          0                18           2             4    7     1      -0.8833778139E-03       4    7    1        -0.4740303547E-01      0.1161123986E+00
          0                19           2             4    7     1      -0.7465551954E-03       4    7    1        -0.4006060690E-01      0.9812732729E-01
          0                20           2             4    7     1      -0.6312321069E-03       4    7    1        -0.3387198287E-01      0.8296846749E-01
                                                   Max.-Head-Change                         Max.-Flux-Residual
  Residual-Control   Outer-Iter.   Inner-Iter.     Column Row Layer    Maximum-Head-Change  Column Row Layer    Maximum-Flux-Residual          L2-NORM 
          0                21           2             4    7     1      -0.5339327028E-03       4    7    1        -0.2865061843E-01      0.7017888261E-01
          0                22           2             4    7     1      -0.4517728434E-03       4    7    1        -0.2424172608E-01      0.5937942515E-01
          0                23           2             4    7     1      -0.3823600625E-03       4    7    1        -0.2051690661E-01      0.5025558491E-01
          0                24           2             4    7     1      -0.3236761733E-03       4    7    1        -0.1736784876E-01      0.4254205649E-01
          0                25           2             4    7     1      -0.2740677340E-03       4    7    1        -0.1470581668E-01      0.3602148391E-01
          0                26           2             4    7     1      -0.2321045293E-03       4    7    1        -0.1245405542E-01      0.3050585811E-01
          0                27           2             4    7     1      -0.1965895006E-03       4    7    1        -0.1054832347E-01      0.2583782142E-01
          0                28           2             4    7     1      -0.1665225083E-03       4    7    1        -0.8934947495E-02      0.2188590238E-01
          0                29           2             4    7     1      -0.1410673216E-03       4    7    1        -0.7569050839E-02      0.1854017699E-01
          0                30           2             4    7     1      -0.1195183909E-03       4    7    1        -0.6412770265E-02      0.1570790029E-01
                                                   Max.-Head-Change                         Max.-Flux-Residual
  Residual-Control   Outer-Iter.   Inner-Iter.     Column Row Layer    Maximum-Head-Change  Column Row Layer    Maximum-Flux-Residual          L2-NORM 
          0                31           1             4    7     1      -0.1012676363E-03       4    7    1        -0.5433473509E-02      0.1330914043E-01
          0                32           1             4    7     1      -0.8580676981E-04       4    7    1        -0.4603884094E-02      0.1127708457E-01

    ------------------------------------------------
       NWT REQUIRED           32 OUTER ITERATIONS 
       AND A TOTAL OF         62 INNER ITERATIONS.
    ------------------------------------------------

 NO OUTPUT CONTROL FOR STRESS PERIOD    8   TIME STEP   29
 
 SOLVING FOR HEAD 
                                                   Max.-Head-Change                         Max.-Flux-Residual
  Residual-Control   Outer-Iter.   Inner-Iter.     Column Row Layer    Maximum-Head-Change  Column Row Layer    Maximum-Flux-Residual          L2-NORM 
          0                 1           2             5    8     1       0.1334466773E+00       5    8    1         0.7279364275E+01      0.1724025803E+02
          0                 2           2             5    7     1      -0.1948065462E+00       5    8    1        -0.1071869237E+02      0.2596628845E+02
          0                 3           2             4    7     1      -0.1409475833E-02       4    7    1        -0.7603240730E-01      0.1670329630E+00
          0                 4           2             4    7     1      -0.1192599239E-01       5    8    1        -0.6414975250E+00      0.1569869145E+01
          0                 5           2             4    7     1      -0.8927786649E-02       4    7    1        -0.4791333514E+00      0.1173471806E+01
          0                 6           2             4    7     1      -0.7373089035E-02       5    6    1        -0.3956926947E+00      0.9692437092E+00
          0                 7           2             4    7     1      -0.6080487320E-02       4    7    1        -0.3263178909E+00      0.7993055977E+00
          0                 8           2             4    7     1      -0.5043232392E-02       4    7    1        -0.2706495906E+00      0.6629485058E+00
          0                 9           2             4    7     1      -0.4199208524E-02       4    7    1        -0.2253521741E+00      0.5519937357E+00
          0                10           2             4    7     1      -0.3507432983E-02       4    7    1        -0.1882259998E+00      0.4610542423E+00
                                                   Max.-Head-Change                         Max.-Flux-Residual
  Residual-Control   Outer-Iter.   Inner-Iter.     Column Row Layer    Maximum-Head-Change  Column Row Layer    Maximum-Flux-Residual          L2-NORM 
          0                11           2             4    7     1      -0.2937029521E-02       4    7    1        -0.1576138823E+00      0.3860707363E+00
          0                12           2             4    7     1      -0.2464446475E-02       4    7    1        -0.1322517634E+00      0.3239469499E+00
          0                13           2             4    7     1      -0.2071376917E-02       4    7    1        -0.1111570833E+00      0.2722761314E+00
          0                14           2             4    7     1      -0.1743393799E-02       4    7    1        -0.9355552461E-01      0.2291616135E+00
          0                15           2             4    7     1      -0.1469032610E-02       4    7    1        -0.7883177592E-01      0.1930962089E+00
          0                16           2             4    7     1      -0.1239038155E-02       4    7    1        -0.6648910525E-01      0.1628631867E+00
          0                17           2             4    7     1      -0.1045866428E-02       4    7    1        -0.5612262375E-01      0.1374707836E+00
          0                18           2             4    7     1      -0.8833818513E-03       4    7    1        -0.4740303546E-01      0.1161123986E+00
          0                19           2             4    7     1      -0.7465586070E-03       4    7    1        -0.4006060689E-01      0.9812732731E-01
          0                20           2             4    7     1      -0.6312349918E-03       4    7    1        -0.3387198287E-01      0.8296846750E-01
                                                   Max.-Head-Change                         Max.-Flux-Residual
  Residual-Control   Outer-Iter.   Inner-Iter.     Column Row Layer    Maximum-Head-Change  Column Row Layer    Maximum-Flux-Residual          L2-NORM 
          0                21           2             4    7     1      -0.5339351432E-03       4    7    1        -0.2865061843E-01      0.7017888264E-01
          0                22           2             4    7     1      -0.4517749078E-03       4    7    1        -0.2424172606E-01      0.5937942519E-01
          0                23           2             4    7     1      -0.3823618100E-03       4    7    1        -0.2051690662E-01      0.5025558493E-01
          0                24           2             4    7     1      -0.3236776529E-03       4    7    1        -0.1736784878E-01      0.4254205649E-01
          0                25           2             4    7     1      -0.2740689867E-03       4    7    1        -0.1470581667E-01      0.3602148391E-01
          0                26           2             4    7     1      -0.2321055896E-03       4    7    1        -0.1245405541E-01      0.3050585815E-01
          0                27           2             4    7     1      -0.1965903992E-03       4    7    1        -0.1054832348E-01      0.2583782145E-01
          0                28           2             4    7     1      -0.1665232697E-03       4    7    1        -0.8934947508E-02      0.2188590241E-01
          0                29           2             4    7     1      -0.1410679659E-03       4    7    1        -0.7569050826E-02      0.1854017699E-01
          0                30           2             4    7     1      -0.1195189373E-03       4    7    1        -0.6412770279E-02      0.1570790037E-01
                                                   Max.-Head-Change                         Max.-Flux-Residual
  Residual-Control   Outer-Iter.   Inner-Iter.     Column Row Layer    Maximum-Head-Change  Column Row Layer    Maximum-Flux-Residual          L2-NORM 
          0                31           1             4    7     1      -0.1012680996E-03       4    7    1        -0.5433473516E-02      0.1330914046E-01
          0                32           1             4    7     1      -0.8580716125E-04       4    7    1        -0.4603884069E-02      0.1127708457E-01

    ------------------------------------------------
       NWT REQUIRED           32 OUTER ITERATIONS 
       AND A TOTAL OF         62 INNER ITERATIONS.
    ------------------------------------------------

 NO OUTPUT CONTROL FOR STRESS PERIOD    8   TIME STEP   30



 STREAM LISTING     PERIOD      8   STEP       30

 LAYER ROW COL. STREAM  RCH.  FLOW INTO     FLOW TO   FLOW OUT OF   OVRLND.     DIRECT     STREAM       STREAM     STREAM     STREAM   STREAMBED  STREAMBED
                SEG.NO.  NO.  STRM. RCH.    AQUIFER    STRM. RCH.    RUNOFF     PRECIP       ET          HEAD       DEPTH      WIDTH   CONDCTNC.   GRADIENT

   1    1    1     1     1    7.4999E+01  4.2231E-01   7.4577E+01  0.000E+00  0.000E+00  0.000E+00  1.09475E+03  1.698E+00  1.998E+01  8.990E-02  1.566E+00
   1    2    2     1     2    7.4577E+01  6.5422E-01   7.3923E+01  0.000E+00  0.000E+00  0.000E+00  1.08975E+03  1.692E+00  1.992E+01  1.394E-01  1.564E+00
   1    3    3     1     3    7.3923E+01  5.5813E-01   7.3365E+01  0.000E+00  0.000E+00  0.000E+00  1.08410E+03  1.685E+00  1.985E+01  1.191E-01  1.562E+00
   1    3    4     1     4    7.3365E+01  5.1411E-01   7.2851E+01  0.000E+00  0.000E+00  0.000E+00  1.07909E+03  1.679E+00  1.980E+01  1.099E-01  1.560E+00
   1    4    5     2     1    7.0851E+01  4.0967E-01   7.0441E+01  0.000E+00  0.000E+00  0.000E+00  1.07419E+03  2.252E+00  1.200E+01  7.800E-02  1.751E+00
   1    5    6     2     2    7.0441E+01  3.1471E-01   7.0126E+01  0.000E+00  0.000E+00  0.000E+00  1.06875E+03  2.245E+00  1.200E+01  6.000E-02  1.748E+00
   1    6    6     2     3    7.0126E+01  3.1435E-01   6.9812E+01  0.000E+00  0.000E+00  0.000E+00  1.06403E+03  2.239E+00  1.200E+01  6.000E-02  1.746E+00
   1    7    6     2     4    6.9812E+01  3.1399E-01   6.9498E+01  0.000E+00  0.000E+00  0.000E+00  1.05931E+03  2.233E+00  1.200E+01  6.000E-02  1.744E+00
   1    8    6     2     5    6.9498E+01  3.1363E-01   6.9184E+01  0.000E+00  0.000E+00  0.000E+00  1.05459E+03  2.227E+00  1.200E+01  6.000E-02  1.742E+00
   1    3    5     3     1    2.0000E+00  2.8252E-01   1.7175E+00  0.000E+00  0.000E+00  0.000E+00  1.07555E+03  1.909E+00  9.636E+00  7.227E-02  1.955E+00
   1    3    6     3     2    1.7175E+00  2.4905E-01   1.4684E+00  0.000E+00  0.000E+00  0.000E+00  1.07264E+03  1.727E+00  8.909E+00  6.682E-02  1.864E+00
   1    3    7     3     3    1.4684E+00  1.9718E-01   1.2712E+00  0.000E+00  0.000E+00  0.000E+00  1.06987E+03  1.555E+00  8.218E+00  5.547E-02  1.777E+00
   1    4    8     3     4    1.2712E+00  2.2567E-01   1.0456E+00  0.000E+00  0.000E+00  0.000E+00  1.06682E+03  1.364E+00  7.455E+00  6.709E-02  1.682E+00
   1    5    8     3     5    1.0456E+00  1.5790E-01   8.8768E-01  0.000E+00  0.000E+00  0.000E+00  1.06362E+03  1.164E+00  6.655E+00  4.991E-02  1.582E+00
   1    6    8     3     6    8.8768E-01  5.5980E-02   8.3170E-01  0.000E+00  0.000E+00  0.000E+00  1.06158E+03  1.036E+00  6.145E+00  1.844E-02  1.518E+00
   1    5   10     4     1    1.0000E+01  9.0919E-02   9.9091E+00  0.000E+00  0.000E+00  0.000E+00  1.07836E+03  6.368E-01  1.000E+01  2.500E-02  1.212E+00
   1    5    9     4     2    9.9091E+00  1.8158E-01   9.7275E+00  0.000E+00  0.000E+00  0.000E+00  1.07154E+03  6.315E-01  1.000E+01  5.000E-02  1.211E+00
   1    6    8     4     3    9.7275E+00  1.2689E-01   9.6006E+00  0.000E+00  0.000E+00  0.000E+00  1.06381E+03  6.256E-01  1.000E+01  3.500E-02  1.209E+00
   1    6    8     5     1    1.0432E+01  2.2686E-01   1.0205E+01  0.000E+00  0.000E+00  0.000E+00  1.05868E+03  6.790E-01  1.542E+01  6.166E-02  1.226E+00
   1    7    7     5     2    1.0205E+01  2.7894E-01   9.9265E+00  0.000E+00  0.000E+00  0.000E+00  1.05417E+03  6.732E-01  1.519E+01  7.594E-02  1.224E+00
   1    8    7     5     3    9.9265E+00  1.9221E-01   9.7343E+00  0.000E+00  0.000E+00  0.000E+00  1.04992E+03  6.676E-01  1.497E+01  5.241E-02  1.223E+00
   1    8    6     5     4    9.7343E+00  1.3577E-01   9.5985E+00  0.000E+00  0.000E+00  0.000E+00  1.04691E+03  6.637E-01  1.482E+01  3.706E-02  1.221E+00
   1    9    6     6     1    7.8783E+01  3.2569E-01   7.8457E+01  0.000E+00  0.000E+00  0.000E+00  1.04516E+03  2.428E+00  1.200E+01  6.000E-02  1.809E+00
   1   10    7     6     2    7.8457E+01  3.2533E-01   7.8132E+01  0.000E+00  0.000E+00  0.000E+00  1.04060E+03  2.422E+00  1.200E+01  6.000E-02  1.807E+00
   1   11    7     6     3    7.8132E+01  3.2497E-01   7.7807E+01  0.000E+00  0.000E+00  0.000E+00  1.03605E+03  2.416E+00  1.200E+01  6.000E-02  1.805E+00
   1   12    7     6     4    7.7807E+01  3.2461E-01   7.7482E+01  0.000E+00  0.000E+00  0.000E+00  1.03150E+03  2.410E+00  1.200E+01  6.000E-02  1.803E+00
   1   13    7     6     5    7.7482E+01  2.5722E-02   7.7457E+01  0.000E+00  0.000E+00  0.000E+00  1.02832E+03  2.407E+00  1.200E+01  2.400E-02  3.572E-01
   1   14    9     7     1    1.5000E+02  1.3316E+00   1.4867E+02  0.000E+00  0.000E+00  0.000E+00  1.03987E+03  2.288E+00  5.529E+01  5.593E-01  7.936E-01
   1   13    8     7     2    1.4867E+02  1.7983E+00   1.4687E+02  0.000E+00  0.000E+00  0.000E+00  1.03478E+03  2.279E+00  5.526E+01  6.148E-01  9.751E-01
   1   13    7     7     3    1.4687E+02  1.3661E+00   1.4550E+02  0.000E+00  0.000E+00  0.000E+00  1.02969E+03  2.271E+00  5.522E+01  5.585E-01  8.154E-01
   1   13    6     8     1    2.2296E+02  1.0158E+00   2.2194E+02  0.000E+00  0.000E+00  0.000E+00  1.02514E+03  3.265E+00  4.735E+01  4.825E-01  7.018E-01
   1   13    5     8     2    2.2194E+02  2.0177E-01   2.2174E+02  0.000E+00  0.000E+00  0.000E+00  1.01889E+03  3.262E+00  4.730E+01  4.820E-01  1.395E-01
   1   13    4     8     3    2.2174E+02 -1.9143E+00   2.2366E+02  0.000E+00  0.000E+00  0.000E+00  1.01264E+03  3.267E+00  4.737E+01  4.827E+00 -1.322E-01
   1   13    3     8     4    2.2366E+02 -3.0672E+00   2.2672E+02  0.000E+00  0.000E+00  0.000E+00  1.00641E+03  3.280E+00  4.757E+01  4.847E+00 -2.109E-01
   1   13    2     8     5    2.2672E+02 -2.5089E+00   2.2923E+02  0.000E+00  0.000E+00  0.000E+00  1.00017E+03  3.296E+00  4.779E+01  4.870E+00 -1.717E-01
   1   13    1     8     6    2.2923E+02 -1.9837E+00   2.3122E+02  0.000E+00  0.000E+00  0.000E+00  9.95183E+02  3.308E+00  4.796E+01  2.933E+00 -2.255E-01





UNSATURATED ZONE PACKAGE VOLUMETRIC BUDGET FOR  TIME STEP    30 STRESS PERIOD    8
  ------------------------------------------------------------------------------



     CUMULATIVE VOLUMES      L**3       RATES FOR THIS TIME STEP      L**3/T
     ------------------                 ------------------------

           IN:                                      IN:
           ---                                      ---
        INFILTRATION =   333876586.3973          INFILTRATION =          88.1754

          OUT:                                     OUT:
          ----                                     ----
              UZF ET =   261782119.8744                UZF ET =          60.7922
        UZF RECHARGE =       73224.0000          UZF RECHARGE =       0.0000E+00

            IN - OUT =    72021242.5229              IN - OUT =          27.3832

          STORAGE:                                 STORAGE:
          --------                                 --------
      STORAGE CHANGE =    72021236.8128        STORAGE CHANGE =          27.3832

 PERCENT DISCREPANCY IS DIFFERENCE BETWEEN IN-OUT MINUS CHANGE IN STORAGE
 DIVIDED BY THE AVERAGE OF IN AND OUT TIMES 100

 PERCENT DISCREPANCY =           0.00     PERCENT DISCREPANCY =           0.00






1
  VOLUMETRIC BUDGET FOR AGRICULTURAL FIELDS AT  END OF TIME STEP   30, STRESS PERIOD   8
  ------------------------------------------------------------------------------

     CUMULATIVE VOLUMES      L**3       RATES FOR THIS TIME STEP      L**3/T
     ------------------                 ------------------------

           IN:                                      IN:
           ---                                      ---
           AG WELLS      =   318200960.0000             AG WELLS      =          87.3279
      DIVERSION SEGMENTS =           0.0000        DIVERSION SEGMENTS =           0.0000
           GW IRRIGATION =           0.0000             GW IRRIGATION =           0.0000
           SW IRRIGATION =           0.0000             SW IRRIGATION =           0.0000
        SYSTEM LOSSES GW =           0.0000          SYSTEM LOSSES GW =           0.0000
        SYSTEM LOSSES SW =           0.0000          SYSTEM LOSSES SW =           0.0000

                TOTAL IN =   318200960.0000                  TOTAL IN =          87.3279

          OUT:                                     OUT:
          ----                                     ----
           AG WELLS      =           0.0000             AG WELLS      =           0.0000
      DIVERSION SEGMENTS =           0.0000        DIVERSION SEGMENTS =           0.0000
           GW IRRIGATION =   318200960.0000             GW IRRIGATION =          87.3279
           SW IRRIGATION =           0.0000             SW IRRIGATION =           0.0000
        SYSTEM LOSSES GW =           0.0000          SYSTEM LOSSES GW =           0.0000
        SYSTEM LOSSES SW =           0.0000          SYSTEM LOSSES SW =           0.0000

               TOTAL OUT =   318200960.0000                 TOTAL OUT =          87.3279

                IN - OUT =           0.0000                  IN - OUT =           0.0000

     PERCENT DISCREPANCY =           0.00         PERCENT DISCREPANCY =           0.00



1
  VOLUMETRIC BUDGET FOR ENTIRE MODEL AT END OF TIME STEP   30, STRESS PERIOD   8
  ------------------------------------------------------------------------------

     CUMULATIVE VOLUMES      L**3       RATES FOR THIS TIME STEP      L**3/T
     ------------------                 ------------------------

           IN:                                      IN:
           ---                                      ---
             STORAGE     =   322330560.0000               STORAGE     =          86.2473
       CONSTANT HEAD     =           0.0000         CONSTANT HEAD     =           0.0000
     HEAD DEP BOUNDS     =     5279910.5000       HEAD DEP BOUNDS     =           0.2855
      STREAM LEAKAGE     =   237080192.0000        STREAM LEAKAGE     =          13.2565
        UZF RECHARGE     =       73223.9531          UZF RECHARGE     =           0.0000
               GW ET     =           0.0000                 GW ET     =           0.0000
     SURFACE LEAKAGE     =           0.0000       SURFACE LEAKAGE     =           0.0000
           AG WELLS      =           0.0000             AG WELLS      =           0.0000

                TOTAL IN =   564763904.0000                  TOTAL IN =          99.7893

          OUT:                                     OUT:
          ----                                     ----
             STORAGE     =    45211700.0000               STORAGE     =           1.1550
       CONSTANT HEAD     =           0.0000         CONSTANT HEAD     =           0.0000
     HEAD DEP BOUNDS     =     5460587.0000       HEAD DEP BOUNDS     =           0.2986
      STREAM LEAKAGE     =   185554448.0000        STREAM LEAKAGE     =           9.4741
        UZF RECHARGE     =           0.0000          UZF RECHARGE     =           0.0000
               GW ET     =    10335185.0000                 GW ET     =           1.5317
     SURFACE LEAKAGE     =           0.0000       SURFACE LEAKAGE     =           0.0000
           AG WELLS      =   318200960.0000             AG WELLS      =          87.3279

               TOTAL OUT =   564762880.0000                 TOTAL OUT =          99.7873

                IN - OUT =        1024.0000                  IN - OUT =       1.9302E-03

     PERCENT DISCREPANCY =           0.00         PERCENT DISCREPANCY =           0.00






         TIME SUMMARY AT END OF TIME STEP   30 IN STRESS PERIOD    8
                    SECONDS     MINUTES      HOURS       DAYS        YEARS
                    -----------------------------------------------------------
   TIME STEP LENGTH  87667.      1461.1      24.352      1.0147     2.77799E-03
 STRESS PERIOD TIME 2.63000E+06  43833.      730.56      30.440     8.33397E-02
         TOTAL TIME 1.84964E+07 3.08274E+05  5137.9      214.08     0.58612    
1
1
                            STRESS PERIOD NO.    9, LENGTH =   2630000.    
                            -----------------------------------------------

                              NUMBER OF TIME STEPS =    30

                               MULTIPLIER FOR DELT =     1.000

                            INITIAL TIME STEP SIZE =   87666.66    

 REUSING NON-PARAMETER GHB CELLS FROM LAST STRESS PERIOD

      2 GHB CELLS

 REUSING STREAM SEGMENT DATA FROM LAST STRESS PERIOD



            AREAL INFILTRATION RATE
 READING ON UNIT   19 WITH FORMAT: (FREE)              

            1           2           3           4           5           6           7           8           9          10
 ........................................................................................................................
   1   1.0000E-10  2.0000E-10   0.000       0.000       0.000       0.000       0.000       0.000       0.000       0.000    
   2   2.0000E-10  1.0000E-10  2.0000E-10   0.000       0.000      8.0000E-10  8.0000E-10  5.0000E-10   0.000       0.000    
   3    0.000      5.0000E-10  1.0000E-10  1.0000E-10  8.0000E-10  8.0000E-10  5.0000E-10  5.0000E-10   0.000       0.000    
   4   8.0000E-10  5.0000E-10  1.0000E-10  1.0000E-10  1.0000E-10  1.0000E-10  1.0000E-10  1.0000E-10  2.0000E-10   0.000    
   5   8.0000E-10  5.0000E-10  1.0000E-10  1.0000E-10  1.0000E-10  1.0000E-10  1.0000E-10  1.0000E-10  1.0000E-10  1.0000E-10
   6   8.0000E-10  5.0000E-10  5.0000E-10  2.0000E-10  2.0000E-10  1.0000E-10  1.0000E-10  1.0000E-10  1.0000E-10  5.0000E-10
   7   8.0000E-10  5.0000E-10  5.0000E-10  2.0000E-10  2.0000E-10  1.0000E-10  1.0000E-10  2.0000E-10  2.0000E-10   0.000    
   8    0.000      5.0000E-10  5.0000E-10  2.0000E-10  2.0000E-10  1.0000E-10  1.0000E-10  2.0000E-10  5.0000E-10   0.000    
   9    0.000      5.0000E-10  5.0000E-10  2.0000E-10  2.0000E-10  1.0000E-10  1.0000E-10  2.0000E-10  5.0000E-10   0.000    
  10    0.000      5.0000E-10  5.0000E-10  2.0000E-10  2.0000E-10  1.0000E-10  1.0000E-10  2.0000E-10  5.0000E-10  8.0000E-10
  11    0.000      1.0000E-10  1.0000E-10  1.0000E-10  1.0000E-10  1.0000E-10  1.0000E-10  2.0000E-10  5.0000E-10   0.000    
  12   1.0000E-10  1.0000E-10  1.0000E-10  1.0000E-10  1.0000E-10  1.0000E-10  1.0000E-10  1.0000E-10  2.0000E-10   0.000    
  13   1.0000E-10  1.0000E-10  2.0000E-10  2.0000E-10  2.0000E-10  2.0000E-10  2.0000E-10  1.0000E-10  1.0000E-10   0.000    
  14    0.000      2.0000E-10  5.0000E-10  5.0000E-10  5.0000E-10  5.0000E-10  5.0000E-10  2.0000E-10  1.0000E-10   0.000    
  15    0.000       0.000      8.0000E-10  8.0000E-10  8.0000E-10  8.0000E-10   0.000       0.000       0.000       0.000    

                  ET RATE =  3.250000E-07

 USING ET EXTINCTION DEPTH FROM PREVIOUS STRESS PERIOD. CURRENT PERIOD IS:       9

 USING EXTINCTION WATER CONTENT FROM PREVIOUS STRESS PERIOD. CURRENT PERIOD IS:       9

 USING AIR ENTRY PRESSURE FROM PREVIOUS STRESS PERIOD. CURRENT PERIOD IS:       9

 USING ROOT PRESSURE HEAD FROM PREVIOUS STRESS PERIOD. CURRENT PERIOD IS:       9

 USING ROOT ACTIVITY FROM PREVIOUS STRESS PERIOD. CURRENT PERIOD IS:       9

 PROCESSING AG STRESS PERIOD DATA

 READING AG STRESS PERIOD DATA

 READING IRRIGATION WELL

 END PROCESSING AG STRESS PERIOD DATA OPTIONS
 
 SOLVING FOR HEAD 
                                                   Max.-Head-Change                         Max.-Flux-Residual
  Residual-Control   Outer-Iter.   Inner-Iter.     Column Row Layer    Maximum-Head-Change  Column Row Layer    Maximum-Flux-Residual          L2-NORM 
          0                 1           2             4    7     1      -0.7165204478E-01       4    7    1        -0.3795561591E+01      0.1020677737E+02
          0                 2           2             4    7     1       0.6969631949E-02       4    7    1         0.3795452004E+00      0.1020630624E+01
          0                 3           2             4    7     1      -0.4746076440E-03       4    7    1        -0.2656827919E-01      0.7144121900E-01
          0                 4           1             4    7     1       0.1888507428E-04       4    7    1         0.1086643646E-02      0.2921744634E-02

    ------------------------------------------------
       NWT REQUIRED            4 OUTER ITERATIONS 
       AND A TOTAL OF          7 INNER ITERATIONS.
    ------------------------------------------------

 NO OUTPUT CONTROL FOR STRESS PERIOD    9   TIME STEP    1
 
 SOLVING FOR HEAD 
                                                   Max.-Head-Change                         Max.-Flux-Residual
  Residual-Control   Outer-Iter.   Inner-Iter.     Column Row Layer    Maximum-Head-Change  Column Row Layer    Maximum-Flux-Residual          L2-NORM 
          0                 1           2             5    8     1       0.1333318710E+00       5    8    1         0.7268394303E+01      0.1736587955E+02
          0                 2           2             5    6     1      -0.1605449747E+00       5    8    1        -0.8846727707E+01      0.2140516481E+02
          0                 3           2             5    6     1       0.1093242863E-01       5    8    1         0.6192654783E+00      0.1498347469E+01
          0                 4           2             5    6     1      -0.4350119857E-03       5    8    1        -0.2532801991E-01      0.6128255850E-01
          0                 5           1             5    6     1       0.5363877237E-05       5    8    1         0.3209840395E-03      0.7766398166E-03

    ------------------------------------------------
       NWT REQUIRED            5 OUTER ITERATIONS 
       AND A TOTAL OF          9 INNER ITERATIONS.
    ------------------------------------------------

 NO OUTPUT CONTROL FOR STRESS PERIOD    9   TIME STEP    2
 
 SOLVING FOR HEAD 
                                                   Max.-Head-Change                         Max.-Flux-Residual
  Residual-Control   Outer-Iter.   Inner-Iter.     Column Row Layer    Maximum-Head-Change  Column Row Layer    Maximum-Flux-Residual          L2-NORM 
          0                 1           2             5    8     1       0.1316273346E+00       5    8    1         0.7171384164E+01      0.1723178042E+02
          0                 2           2             5    7     1      -0.1605132583E+00       5    8    1        -0.8837104211E+01      0.2139860693E+02
          0                 3           2             5    7     1       0.1092996488E-01       5    8    1         0.6185756572E+00      0.1497848662E+01
          0                 4           2             5    7     1      -0.4349140131E-03       5    8    1        -0.2529980604E-01      0.6126215795E-01
          0                 5           1             5    7     1       0.5362684503E-05       5    8    1         0.3206264764E-03      0.7763809621E-03

    ------------------------------------------------
       NWT REQUIRED            5 OUTER ITERATIONS 
       AND A TOTAL OF          9 INNER ITERATIONS.
    ------------------------------------------------

 NO OUTPUT CONTROL FOR STRESS PERIOD    9   TIME STEP    3
 
 SOLVING FOR HEAD 
                                                   Max.-Head-Change                         Max.-Flux-Residual
  Residual-Control   Outer-Iter.   Inner-Iter.     Column Row Layer    Maximum-Head-Change  Column Row Layer    Maximum-Flux-Residual          L2-NORM 
          0                 1           2             5    8     1       0.1300576850E+00       5    8    1         0.7082802707E+01      0.1710867683E+02
          0                 2           2             5    7     1      -0.1605156449E+00       5    8    1        -0.8828246362E+01      0.2139259832E+02
          0                 3           2             5    7     1       0.1093012597E-01       5    8    1         0.6179556400E+00      0.1497427977E+01
          0                 4           2             5    7     1      -0.4349204299E-03       5    8    1        -0.2527444713E-01      0.6124495272E-01
          0                 5           1             5    7     1       0.5362763249E-05       5    8    1         0.3203050942E-03      0.7761621779E-03

    ------------------------------------------------
       NWT REQUIRED            5 OUTER ITERATIONS 
       AND A TOTAL OF          9 INNER ITERATIONS.
    ------------------------------------------------

 NO OUTPUT CONTROL FOR STRESS PERIOD    9   TIME STEP    4
 
 SOLVING FOR HEAD 
                                                   Max.-Head-Change                         Max.-Flux-Residual
  Residual-Control   Outer-Iter.   Inner-Iter.     Column Row Layer    Maximum-Head-Change  Column Row Layer    Maximum-Flux-Residual          L2-NORM 
          0                 1           2             5    8     1       0.1286122096E+00       5    8    1         0.7001217154E+01      0.1699552466E+02
          0                 2           2             5    7     1      -0.1605170366E+00       5    8    1        -0.8820088087E+01      0.2138709970E+02
          0                 3           2             5    7     1       0.1093021943E-01       5    8    1         0.6173845896E+00      0.1497042993E+01
          0                 4           2             5    7     1      -0.4349241546E-03       5    8    1        -0.2525109102E-01      0.6122920916E-01
          0                 5           1             5    7     1       0.5362809063E-05       5    8    1         0.3200091076E-03      0.7759624859E-03

    ------------------------------------------------
       NWT REQUIRED            5 OUTER ITERATIONS 
       AND A TOTAL OF          9 INNER ITERATIONS.
    ------------------------------------------------

 NO OUTPUT CONTROL FOR STRESS PERIOD    9   TIME STEP    5
 
 SOLVING FOR HEAD 
                                                   Max.-Head-Change                         Max.-Flux-Residual
  Residual-Control   Outer-Iter.   Inner-Iter.     Column Row Layer    Maximum-Head-Change  Column Row Layer    Maximum-Flux-Residual          L2-NORM 
          0                 1           2             5    8     1       0.1272814800E+00       5    8    1         0.6926093206E+01      0.1689149757E+02
          0                 2           2             5    7     1      -0.1605176620E+00       5    8    1        -0.8812575957E+01      0.2138208100E+02
          0                 3           2             5    7     1       0.1093026081E-01       5    8    1         0.6168587711E+00      0.1496691607E+01
          0                 4           2             5    7     1      -0.4349258077E-03       5    8    1        -0.2522958485E-01      0.6121483879E-01
          0                 5           1             5    7     1       0.5362829898E-05       5    8    1         0.3197365779E-03      0.7757866320E-03

    ------------------------------------------------
       NWT REQUIRED            5 OUTER ITERATIONS 
       AND A TOTAL OF          9 INNER ITERATIONS.
    ------------------------------------------------

 NO OUTPUT CONTROL FOR STRESS PERIOD    9   TIME STEP    6
 
 SOLVING FOR HEAD 
                                                   Max.-Head-Change                         Max.-Flux-Residual
  Residual-Control   Outer-Iter.   Inner-Iter.     Column Row Layer    Maximum-Head-Change  Column Row Layer    Maximum-Flux-Residual          L2-NORM 
          0                 1           2             5    8     1       0.1260571597E+00       5    8    1         0.6856937312E+01      0.1679579161E+02
          0                 2           2             5    7     1      -0.1605180711E+00       5    8    1        -0.8805660630E+01      0.2137749077E+02
          0                 3           2             5    7     1       0.1093028763E-01       5    8    1         0.6163747106E+00      0.1496370210E+01
          0                 4           2             5    7     1      -0.4349268797E-03       5    8    1        -0.2520978669E-01      0.6120169495E-01
          0                 5           1             5    7     1       0.5362842555E-05       5    8    1         0.3194856633E-03      0.7756196769E-03

    ------------------------------------------------
       NWT REQUIRED            5 OUTER ITERATIONS 
       AND A TOTAL OF          9 INNER ITERATIONS.
    ------------------------------------------------

 NO OUTPUT CONTROL FOR STRESS PERIOD    9   TIME STEP    7
 
 SOLVING FOR HEAD 
                                                   Max.-Head-Change                         Max.-Flux-Residual
  Residual-Control   Outer-Iter.   Inner-Iter.     Column Row Layer    Maximum-Head-Change  Column Row Layer    Maximum-Flux-Residual          L2-NORM 
          0                 1           2             5    8     1       0.1249318242E+00       5    8    1         0.6793312299E+01      0.1670786350E+02
          0                 2           2             5    7     1      -0.1605173918E+00       5    8    1        -0.8799298364E+01      0.2137332701E+02
          0                 3           2             5    7     1       0.1093024026E-01       5    8    1         0.6159293775E+00      0.1496078676E+01
          0                 4           2             5    7     1      -0.4349249999E-03       5    8    1        -0.2519157242E-01      0.6118977173E-01
          0                 5           1             5    7     1       0.5362819144E-05       5    8    1         0.3192548263E-03      0.7754640513E-03

    ------------------------------------------------
       NWT REQUIRED            5 OUTER ITERATIONS 
       AND A TOTAL OF          9 INNER ITERATIONS.
    ------------------------------------------------

 NO OUTPUT CONTROL FOR STRESS PERIOD    9   TIME STEP    8
 
 SOLVING FOR HEAD 
                                                   Max.-Head-Change                         Max.-Flux-Residual
  Residual-Control   Outer-Iter.   Inner-Iter.     Column Row Layer    Maximum-Head-Change  Column Row Layer    Maximum-Flux-Residual          L2-NORM 
          0                 1           2             5    8     1       0.1238970541E+00       5    8    1         0.6734802168E+01      0.1662701790E+02
          0                 2           2             5    7     1      -0.1605167428E+00       5    8    1        -0.8793447578E+01      0.2136954267E+02
          0                 3           2             5    7     1       0.1093019510E-01       5    8    1         0.6155198405E+00      0.1495813692E+01
          0                 4           2             5    7     1      -0.4349232077E-03       5    8    1        -0.2517482227E-01      0.6117893434E-01
          0                 5           1             5    7     1       0.5362796853E-05       5    8    1         0.3190425452E-03      0.7753284150E-03

    ------------------------------------------------
       NWT REQUIRED            5 OUTER ITERATIONS 
       AND A TOTAL OF          9 INNER ITERATIONS.
    ------------------------------------------------

 NO OUTPUT CONTROL FOR STRESS PERIOD    9   TIME STEP    9
 
 SOLVING FOR HEAD 
                                                   Max.-Head-Change                         Max.-Flux-Residual
  Residual-Control   Outer-Iter.   Inner-Iter.     Column Row Layer    Maximum-Head-Change  Column Row Layer    Maximum-Flux-Residual          L2-NORM 
          0                 1           2             5    8     1       0.1229461623E+00       5    8    1         0.6681011573E+01      0.1655270587E+02
          0                 2           2             5    7     1      -0.1605159610E+00       5    8    1        -0.8788068734E+01      0.2136611619E+02
          0                 3           2             5    7     1       0.1093014098E-01       5    8    1         0.6151433374E+00      0.1495573769E+01
          0                 4           2             5    7     1      -0.4349210581E-03       5    8    1        -0.2515942318E-01      0.6116912251E-01
          0                 5           1             5    7     1       0.5362770418E-05       5    8    1         0.3188474072E-03      0.7752013205E-03

    ------------------------------------------------
       NWT REQUIRED            5 OUTER ITERATIONS 
       AND A TOTAL OF          9 INNER ITERATIONS.
    ------------------------------------------------

 NO OUTPUT CONTROL FOR STRESS PERIOD    9   TIME STEP   10
 
 SOLVING FOR HEAD 
                                                   Max.-Head-Change                         Max.-Flux-Residual
  Residual-Control   Outer-Iter.   Inner-Iter.     Column Row Layer    Maximum-Head-Change  Column Row Layer    Maximum-Flux-Residual          L2-NORM 
          0                 1           2             5    8     1       0.1220730255E+00       5    8    1         0.6631593352E+01      0.1648444031E+02
          0                 2           2             5    7     1      -0.1605151601E+00       5    8    1        -0.8783127118E+01      0.2136302503E+02
          0                 3           2             5    7     1       0.1093008562E-01       5    8    1         0.6147974381E+00      0.1495357319E+01
          0                 4           2             5    7     1      -0.4349188594E-03       5    8    1        -0.2514527582E-01      0.6116026973E-01
          0                 5           1             5    7     1       0.5362743310E-05       5    8    1         0.3186681158E-03      0.7750893935E-03

    ------------------------------------------------
       NWT REQUIRED            5 OUTER ITERATIONS 
       AND A TOTAL OF          9 INNER ITERATIONS.
    ------------------------------------------------

 NO OUTPUT CONTROL FOR STRESS PERIOD    9   TIME STEP   11
 
 SOLVING FOR HEAD 
                                                   Max.-Head-Change                         Max.-Flux-Residual
  Residual-Control   Outer-Iter.   Inner-Iter.     Column Row Layer    Maximum-Head-Change  Column Row Layer    Maximum-Flux-Residual          L2-NORM 
          0                 1           2             5    8     1       0.1212714600E+00       5    8    1         0.6586198800E+01      0.1642174191E+02
          0                 2           2             4    7     1      -0.1605588187E+00       5    8    1        -0.8778587858E+01      0.2136024511E+02
          0                 3           2             4    7     1       0.1093305284E-01       5    8    1         0.6144797020E+00      0.1495162659E+01
          0                 4           2             4    7     1      -0.4350369410E-03       5    8    1        -0.2513228034E-01      0.6115230835E-01
          0                 5           1             4    7     1       0.5364192894E-05       5    8    1         0.3185034252E-03      0.7749882920E-03

    ------------------------------------------------
       NWT REQUIRED            5 OUTER ITERATIONS 
       AND A TOTAL OF          9 INNER ITERATIONS.
    ------------------------------------------------

 NO OUTPUT CONTROL FOR STRESS PERIOD    9   TIME STEP   12
 
 SOLVING FOR HEAD 
                                                   Max.-Head-Change                         Max.-Flux-Residual
  Residual-Control   Outer-Iter.   Inner-Iter.     Column Row Layer    Maximum-Head-Change  Column Row Layer    Maximum-Flux-Residual          L2-NORM 
          0                 1           2             5    8     1       0.1205363544E+00       5    8    1         0.6544538529E+01      0.1636420788E+02
          0                 2           2             4    7     1      -0.1606291486E+00       5    8    1        -0.8774422018E+01      0.2135775667E+02
          0                 3           2             4    7     1       0.1093784078E-01       5    8    1         0.6141881036E+00      0.1494988406E+01
          0                 4           2             4    7     1      -0.4352274634E-03       5    8    1        -0.2512035389E-01      0.6114518217E-01
          0                 5           1             4    7     1       0.5366542406E-05       5    8    1         0.3183522724E-03      0.7748977657E-03

    ------------------------------------------------
       NWT REQUIRED            5 OUTER ITERATIONS 
       AND A TOTAL OF          9 INNER ITERATIONS.
    ------------------------------------------------

 NO OUTPUT CONTROL FOR STRESS PERIOD    9   TIME STEP   13
 
 SOLVING FOR HEAD 
                                                   Max.-Head-Change                         Max.-Flux-Residual
  Residual-Control   Outer-Iter.   Inner-Iter.     Column Row Layer    Maximum-Head-Change  Column Row Layer    Maximum-Flux-Residual          L2-NORM 
          0                 1           2             5    8     1       0.1198624571E+00       5    8    1         0.6506316307E+01      0.1631144608E+02
          0                 2           2             4    7     1      -0.1606960968E+00       5    8    1        -0.8770599974E+01      0.2135554057E+02
          0                 3           2             4    7     1       0.1094239851E-01       5    8    1         0.6139205694E+00      0.1494833220E+01
          0                 4           2             4    7     1      -0.4354088256E-03       5    8    1        -0.2510941169E-01      0.6113883546E-01
          0                 5           1             4    7     1       0.5368778558E-05       5    8    1         0.3182136022E-03      0.7748175753E-03

    ------------------------------------------------
       NWT REQUIRED            5 OUTER ITERATIONS 
       AND A TOTAL OF          9 INNER ITERATIONS.
    ------------------------------------------------

 NO OUTPUT CONTROL FOR STRESS PERIOD    9   TIME STEP   14
 
 SOLVING FOR HEAD 
                                                   Max.-Head-Change                         Max.-Flux-Residual
  Residual-Control   Outer-Iter.   Inner-Iter.     Column Row Layer    Maximum-Head-Change  Column Row Layer    Maximum-Flux-Residual          L2-NORM 
          0                 1           2             5    6     1       0.1192596523E+00       5    8    1         0.6471283264E+01      0.1626312487E+02
          0                 2           2             4    7     1      -0.1607598531E+00       5    8    1        -0.8767096840E+01      0.2135357885E+02
          0                 3           2             4    7     1       0.1094673894E-01       5    8    1         0.6136753577E+00      0.1494695842E+01
          0                 4           2             4    7     1      -0.4355815406E-03       5    8    1        -0.2509938248E-01      0.6113321681E-01
          0                 5           1             4    7     1       0.5370908184E-05       5    8    1         0.3180865081E-03      0.7747466026E-03

    ------------------------------------------------
       NWT REQUIRED            5 OUTER ITERATIONS 
       AND A TOTAL OF          9 INNER ITERATIONS.
    ------------------------------------------------

 NO OUTPUT CONTROL FOR STRESS PERIOD    9   TIME STEP   15
 
 SOLVING FOR HEAD 
                                                   Max.-Head-Change                         Max.-Flux-Residual
  Residual-Control   Outer-Iter.   Inner-Iter.     Column Row Layer    Maximum-Head-Change  Column Row Layer    Maximum-Flux-Residual          L2-NORM 
          0                 1           2             5    6     1       0.1187195268E+00       5    8    1         0.6439210904E+01      0.1621890611E+02
          0                 2           2             4    7     1      -0.1608206079E+00       5    8    1        -0.8763889768E+01      0.2135186011E+02
          0                 3           2             4    7     1       0.1095087505E-01       5    8    1         0.6134508689E+00      0.1494575477E+01
          0                 4           2             4    7     1      -0.4357461257E-03       5    8    1        -0.2509020086E-01      0.6112829447E-01
          0                 5           1             4    7     1       0.5372938005E-05       5    8    1         0.3179701334E-03      0.7746859017E-03

    ------------------------------------------------
       NWT REQUIRED            5 OUTER ITERATIONS 
       AND A TOTAL OF          9 INNER ITERATIONS.
    ------------------------------------------------

 NO OUTPUT CONTROL FOR STRESS PERIOD    9   TIME STEP   16
 
 SOLVING FOR HEAD 
                                                   Max.-Head-Change                         Max.-Flux-Residual
  Residual-Control   Outer-Iter.   Inner-Iter.     Column Row Layer    Maximum-Head-Change  Column Row Layer    Maximum-Flux-Residual          L2-NORM 
          0                 1           2             5    6     1       0.1182234574E+00       5    8    1         0.6409866079E+01      0.1617844558E+02
          0                 2           2             4    7     1      -0.1608785368E+00       5    8    1        -0.8760955442E+01      0.2135035270E+02
          0                 3           2             4    7     1       0.1095481877E-01       5    8    1         0.6132454713E+00      0.1494469904E+01
          0                 4           2             4    7     1      -0.4359030554E-03       5    8    1        -0.2508180006E-01      0.6112397663E-01
          0                 5           1             4    7     1       0.5374873061E-05       5    8    1         0.3178636805E-03      0.7746293055E-03

    ------------------------------------------------
       NWT REQUIRED            5 OUTER ITERATIONS 
       AND A TOTAL OF          9 INNER ITERATIONS.
    ------------------------------------------------

 NO OUTPUT CONTROL FOR STRESS PERIOD    9   TIME STEP   17
 
 SOLVING FOR HEAD 
                                                   Max.-Head-Change                         Max.-Flux-Residual
  Residual-Control   Outer-Iter.   Inner-Iter.     Column Row Layer    Maximum-Head-Change  Column Row Layer    Maximum-Flux-Residual          L2-NORM 
          0                 1           2             5    6     1       0.1177683051E+00       5    8    1         0.6383050034E+01      0.1614150714E+02
          0                 2           2             4    7     1      -0.1609337939E+00       5    8    1        -0.8758273988E+01      0.2134905838E+02
          0                 3           2             4    7     1       0.1095858062E-01       5    8    1         0.6130577737E+00      0.1494379250E+01
          0                 4           2             4    7     1      -0.4360527471E-03       5    8    1        -0.2507412318E-01      0.6112026972E-01
          0                 5           1             4    7     1       0.5376718729E-05       5    8    1         0.3177663750E-03      0.7745827752E-03

    ------------------------------------------------
       NWT REQUIRED            5 OUTER ITERATIONS 
       AND A TOTAL OF          9 INNER ITERATIONS.
    ------------------------------------------------

 NO OUTPUT CONTROL FOR STRESS PERIOD    9   TIME STEP   18
 
 SOLVING FOR HEAD 
                                                   Max.-Head-Change                         Max.-Flux-Residual
  Residual-Control   Outer-Iter.   Inner-Iter.     Column Row Layer    Maximum-Head-Change  Column Row Layer    Maximum-Flux-Residual          L2-NORM 
          0                 1           2             5    6     1       0.1173514554E+00       5    8    1         0.6358579900E+01      0.1610788486E+02
          0                 2           2             4    7     1      -0.1609865707E+00       5    8    1        -0.8755827120E+01      0.2134795923E+02
          0                 3           2             4    7     1       0.1096217362E-01       5    8    1         0.6128864961E+00      0.1494302261E+01
          0                 4           2             4    7     1      -0.4361957201E-03       5    8    1        -0.2506711791E-01      0.6111712047E-01
          0                 5           1             4    7     1       0.5378481171E-05       5    8    1         0.3176775906E-03      0.7745426822E-03

    ------------------------------------------------
       NWT REQUIRED            5 OUTER ITERATIONS 
       AND A TOTAL OF          9 INNER ITERATIONS.
    ------------------------------------------------

 NO OUTPUT CONTROL FOR STRESS PERIOD    9   TIME STEP   19
 
 SOLVING FOR HEAD 
                                                   Max.-Head-Change                         Max.-Flux-Residual
  Residual-Control   Outer-Iter.   Inner-Iter.     Column Row Layer    Maximum-Head-Change  Column Row Layer    Maximum-Flux-Residual          L2-NORM 
          0                 1           2             5    6     1       0.1169700541E+00       5    8    1         0.6336287167E+01      0.1607733520E+02
          0                 2           2             4    7     1      -0.1610369815E+00       5    8    1        -0.8753597986E+01      0.2134704184E+02
          0                 3           2             4    7     1       0.1096560555E-01       5    8    1         0.6127304590E+00      0.1494237996E+01
          0                 4           2             4    7     1      -0.4363322837E-03       5    8    1        -0.2506073597E-01      0.6111449259E-01
          0                 5           1             4    7     1       0.5380165090E-05       5    8    1         0.3175967186E-03      0.7745089657E-03

    ------------------------------------------------
       NWT REQUIRED            5 OUTER ITERATIONS 
       AND A TOTAL OF          9 INNER ITERATIONS.
    ------------------------------------------------

 NO OUTPUT CONTROL FOR STRESS PERIOD    9   TIME STEP   20
 
 SOLVING FOR HEAD 
                                                   Max.-Head-Change                         Max.-Flux-Residual
  Residual-Control   Outer-Iter.   Inner-Iter.     Column Row Layer    Maximum-Head-Change  Column Row Layer    Maximum-Flux-Residual          L2-NORM 
          0                 1           2             5    6     1       0.1166218948E+00       5    8    1         0.6316008972E+01      0.1604965140E+02
          0                 2           2             4    7     1      -0.1610851856E+00       5    8    1        -0.8751570300E+01      0.2134629485E+02
          0                 3           2             4    7     1       0.1096888726E-01       5    8    1         0.6125885227E+00      0.1494185662E+01
          0                 4           2             4    7     1      -0.4364628704E-03       5    8    1        -0.2505493076E-01      0.6111235235E-01
          0                 5           1             4    7     1       0.5381775527E-05       5    8    1         0.3175231680E-03      0.7744823301E-03

    ------------------------------------------------
       NWT REQUIRED            5 OUTER ITERATIONS 
       AND A TOTAL OF          9 INNER ITERATIONS.
    ------------------------------------------------

 NO OUTPUT CONTROL FOR STRESS PERIOD    9   TIME STEP   21
 
 SOLVING FOR HEAD 
                                                   Max.-Head-Change                         Max.-Flux-Residual
  Residual-Control   Outer-Iter.   Inner-Iter.     Column Row Layer    Maximum-Head-Change  Column Row Layer    Maximum-Flux-Residual          L2-NORM 
          0                 1           2             5    6     1       0.1163046462E+00       5    8    1         0.6297595153E+01      0.1602463065E+02
          0                 2           2             4    7     1      -0.1611313073E+00       5    8    1        -0.8749729048E+01      0.2134570700E+02
          0                 3           2             4    7     1       0.1097202722E-01       5    8    1         0.6124596359E+00      0.1494144469E+01
          0                 4           2             4    7     1      -0.4365878159E-03       5    8    1        -0.2504965928E-01      0.6111066779E-01
          0                 5           1             4    7     1       0.5383316515E-05       5    8    1         0.3174563515E-03      0.7744603546E-03

    ------------------------------------------------
       NWT REQUIRED            5 OUTER ITERATIONS 
       AND A TOTAL OF          9 INNER ITERATIONS.
    ------------------------------------------------

 NO OUTPUT CONTROL FOR STRESS PERIOD    9   TIME STEP   22
 
 SOLVING FOR HEAD 
                                                   Max.-Head-Change                         Max.-Flux-Residual
  Residual-Control   Outer-Iter.   Inner-Iter.     Column Row Layer    Maximum-Head-Change  Column Row Layer    Maximum-Flux-Residual          L2-NORM 
          0                 1           2             5    6     1       0.1160161415E+00       5    8    1         0.6280922733E+01      0.1600209528E+02
          0                 2           2             4    7     1      -0.1611754765E+00       5    8    1        -0.8748061931E+01      0.2134526814E+02
          0                 3           2             4    7     1       0.1097503425E-01       5    8    1         0.6123429379E+00      0.1494113708E+01
          0                 4           2             4    7     1      -0.4367074719E-03       5    8    1        -0.2504488632E-01      0.6110940994E-01
          0                 5           1             4    7     1       0.5384791639E-05       5    8    1         0.3173958607E-03      0.7744450996E-03

    ------------------------------------------------
       NWT REQUIRED            5 OUTER ITERATIONS 
       AND A TOTAL OF          9 INNER ITERATIONS.
    ------------------------------------------------

 NO OUTPUT CONTROL FOR STRESS PERIOD    9   TIME STEP   23
 
 SOLVING FOR HEAD 
                                                   Max.-Head-Change                         Max.-Flux-Residual
  Residual-Control   Outer-Iter.   Inner-Iter.     Column Row Layer    Maximum-Head-Change  Column Row Layer    Maximum-Flux-Residual          L2-NORM 
          0                 1           2             5    6     1       0.1157543708E+00       5    8    1         0.6265862967E+01      0.1598187473E+02
          0                 2           2             4    7     1      -0.1612178154E+00       5    8    1        -0.8746556075E+01      0.2134496854E+02
          0                 3           2             4    7     1       0.1097791669E-01       5    8    1         0.6122375277E+00      0.1494092695E+01
          0                 4           2             4    7     1      -0.4368221699E-03       5    8    1        -0.2504057504E-01      0.6110855048E-01
          0                 5           1             4    7     1       0.5386206050E-05       5    8    1         0.3173412301E-03      0.7744364387E-03

    ------------------------------------------------
       NWT REQUIRED            5 OUTER ITERATIONS 
       AND A TOTAL OF          9 INNER ITERATIONS.
    ------------------------------------------------

 NO OUTPUT CONTROL FOR STRESS PERIOD    9   TIME STEP   24
 
 SOLVING FOR HEAD 
                                                   Max.-Head-Change                         Max.-Flux-Residual
  Residual-Control   Outer-Iter.   Inner-Iter.     Column Row Layer    Maximum-Head-Change  Column Row Layer    Maximum-Flux-Residual          L2-NORM 
          0                 1           2             5    6     1       0.1155177655E+00       5    8    1         0.6252289081E+01      0.1596381200E+02
          0                 2           2             4    7     1      -0.1612584257E+00       5    8    1        -0.8745198803E+01      0.2134479871E+02
          0                 3           2             4    7     1       0.1098068145E-01       5    8    1         0.6121425178E+00      0.1494080768E+01
          0                 4           2             4    7     1      -0.4369321856E-03       5    8    1        -0.2503668913E-01      0.6110806287E-01
          0                 5           1             4    7     1       0.5387562325E-05       5    8    1         0.3172919767E-03      0.7744295776E-03

    ------------------------------------------------
       NWT REQUIRED            5 OUTER ITERATIONS 
       AND A TOTAL OF          9 INNER ITERATIONS.
    ------------------------------------------------

 NO OUTPUT CONTROL FOR STRESS PERIOD    9   TIME STEP   25
 
 SOLVING FOR HEAD 
                                                   Max.-Head-Change                         Max.-Flux-Residual
  Residual-Control   Outer-Iter.   Inner-Iter.     Column Row Layer    Maximum-Head-Change  Column Row Layer    Maximum-Flux-Residual          L2-NORM 
          0                 1           2             5    6     1       0.1153044347E+00       5    8    1         0.6240106933E+01      0.1594776420E+02
          0                 2           2             4    7     1      -0.1612974294E+00       5    8    1        -0.8743980701E+01      0.2134475132E+02
          0                 3           2             4    7     1       0.1098333684E-01       5    8    1         0.6120572493E+00      0.1494077414E+01
          0                 4           2             4    7     1      -0.4370378490E-03       5    8    1        -0.2503320166E-01      0.6110792597E-01
          0                 5           1             4    7     1       0.5388865282E-05       5    8    1         0.3172477823E-03      0.7744260235E-03

    ------------------------------------------------
       NWT REQUIRED            5 OUTER ITERATIONS 
       AND A TOTAL OF          9 INNER ITERATIONS.
    ------------------------------------------------

 NO OUTPUT CONTROL FOR STRESS PERIOD    9   TIME STEP   26
 
 SOLVING FOR HEAD 
                                                   Max.-Head-Change                         Max.-Flux-Residual
  Residual-Control   Outer-Iter.   Inner-Iter.     Column Row Layer    Maximum-Head-Change  Column Row Layer    Maximum-Flux-Residual          L2-NORM 
          0                 1           2             5    6     1       0.1151129028E+00       5    8    1         0.6229214705E+01      0.1593359764E+02
          0                 2           2             4    7     1      -0.1613349016E+00       5    8    1        -0.8742891588E+01      0.2134481745E+02
          0                 3           2             4    7     1       0.1098588798E-01       5    8    1         0.6119810096E+00      0.1494082007E+01
          0                 4           2             4    7     1      -0.4371393644E-03       5    8    1        -0.2503008346E-01      0.6110811423E-01
          0                 5           1             4    7     1       0.5390117160E-05       5    8    1         0.3172082590E-03      0.7744281914E-03

    ------------------------------------------------
       NWT REQUIRED            5 OUTER ITERATIONS 
       AND A TOTAL OF          9 INNER ITERATIONS.
    ------------------------------------------------

 NO OUTPUT CONTROL FOR STRESS PERIOD    9   TIME STEP   27
 
 SOLVING FOR HEAD 
                                                   Max.-Head-Change                         Max.-Flux-Residual
  Residual-Control   Outer-Iter.   Inner-Iter.     Column Row Layer    Maximum-Head-Change  Column Row Layer    Maximum-Flux-Residual          L2-NORM 
          0                 1           2             5    6     1       0.1149416646E+00       5    8    1         0.6219525550E+01      0.1592118933E+02
          0                 2           2             4    7     1      -0.1613709523E+00       5    8    1        -0.8741922778E+01      0.2134499042E+02
          0                 3           2             4    7     1       0.1098834235E-01       5    8    1         0.6119131907E+00      0.1494094080E+01
          0                 4           2             4    7     1      -0.4372370284E-03       5    8    1        -0.2502730967E-01      0.6110860808E-01
          0                 5           1             4    7     1       0.5391321207E-05       5    8    1         0.3171731084E-03      0.7744346885E-03

    ------------------------------------------------
       NWT REQUIRED            5 OUTER ITERATIONS 
       AND A TOTAL OF          9 INNER ITERATIONS.
    ------------------------------------------------

 NO OUTPUT CONTROL FOR STRESS PERIOD    9   TIME STEP   28
 
 SOLVING FOR HEAD 
                                                   Max.-Head-Change                         Max.-Flux-Residual
  Residual-Control   Outer-Iter.   Inner-Iter.     Column Row Layer    Maximum-Head-Change  Column Row Layer    Maximum-Flux-Residual          L2-NORM 
          0                 1           2             5    6     1       0.1147894611E+00       5    8    1         0.6210943806E+01      0.1591041886E+02
          0                 2           2             4    7     1      -0.1614056711E+00       5    8    1        -0.8741064707E+01      0.2134526293E+02
          0                 3           2             4    7     1       0.1099070605E-01       5    8    1         0.6118531232E+00      0.1494113122E+01
          0                 4           2             4    7     1      -0.4373310846E-03       5    8    1        -0.2502485292E-01      0.6110938705E-01
          0                 5           1             4    7     1       0.5392481233E-05       5    8    1         0.3171419683E-03      0.7744530790E-03

    ------------------------------------------------
       NWT REQUIRED            5 OUTER ITERATIONS 
       AND A TOTAL OF          9 INNER ITERATIONS.
    ------------------------------------------------

 NO OUTPUT CONTROL FOR STRESS PERIOD    9   TIME STEP   29
 
 SOLVING FOR HEAD 
                                                   Max.-Head-Change                         Max.-Flux-Residual
  Residual-Control   Outer-Iter.   Inner-Iter.     Column Row Layer    Maximum-Head-Change  Column Row Layer    Maximum-Flux-Residual          L2-NORM 
          0                 1           2             5    6     1       0.1146548285E+00       5    8    1         0.6203388834E+01      0.1590117204E+02
          0                 2           2             4    7     1      -0.1614391295E+00       5    8    1        -0.8740309310E+01      0.2134562768E+02
          0                 3           2             4    7     1       0.1099298395E-01       5    8    1         0.6118002426E+00      0.1494138622E+01
          0                 4           2             4    7     1      -0.4374217269E-03       5    8    1        -0.2502269010E-01      0.6111043015E-01
          0                 5           1             4    7     1       0.5393598693E-05       5    8    1         0.3171145659E-03      0.7744590854E-03

    ------------------------------------------------
       NWT REQUIRED            5 OUTER ITERATIONS 
       AND A TOTAL OF          9 INNER ITERATIONS.
    ------------------------------------------------

 NO OUTPUT CONTROL FOR STRESS PERIOD    9   TIME STEP   30



 STREAM LISTING     PERIOD      9   STEP       30

 LAYER ROW COL. STREAM  RCH.  FLOW INTO     FLOW TO   FLOW OUT OF   OVRLND.     DIRECT     STREAM       STREAM     STREAM     STREAM   STREAMBED  STREAMBED
                SEG.NO.  NO.  STRM. RCH.    AQUIFER    STRM. RCH.    RUNOFF     PRECIP       ET          HEAD       DEPTH      WIDTH   CONDCTNC.   GRADIENT

   1    1    1     1     1    6.1000E+01  3.7546E-01   6.0624E+01  0.000E+00  0.000E+00  0.000E+00  1.09459E+03  1.538E+00  1.839E+01  8.274E-02  1.513E+00
   1    2    2     1     2    6.0624E+01  5.8146E-01   6.0043E+01  0.000E+00  0.000E+00  0.000E+00  1.08959E+03  1.532E+00  1.833E+01  1.283E-01  1.511E+00
   1    3    3     1     3    6.0043E+01  4.9588E-01   5.9547E+01  0.000E+00  0.000E+00  0.000E+00  1.08394E+03  1.525E+00  1.826E+01  1.096E-01  1.508E+00
   1    3    4     1     4    5.9547E+01  4.5664E-01   5.9090E+01  0.000E+00  0.000E+00  0.000E+00  1.07893E+03  1.519E+00  1.821E+01  1.010E-01  1.506E+00
   1    4    5     2     1    5.7090E+01  3.8827E-01   5.6702E+01  0.000E+00  0.000E+00  0.000E+00  1.07391E+03  1.978E+00  1.200E+01  7.800E-02  1.659E+00
   1    5    6     2     2    5.6702E+01  2.9824E-01   5.6404E+01  0.000E+00  0.000E+00  0.000E+00  1.06848E+03  1.971E+00  1.200E+01  6.000E-02  1.657E+00
   1    6    6     2     3    5.6404E+01  2.9787E-01   5.6106E+01  0.000E+00  0.000E+00  0.000E+00  1.06376E+03  1.964E+00  1.200E+01  6.000E-02  1.655E+00
   1    7    6     2     4    5.6106E+01  2.9749E-01   5.5808E+01  0.000E+00  0.000E+00  0.000E+00  1.05903E+03  1.958E+00  1.200E+01  6.000E-02  1.653E+00
   1    8    6     2     5    5.5808E+01  2.9712E-01   5.5511E+01  0.000E+00  0.000E+00  0.000E+00  1.05431E+03  1.952E+00  1.200E+01  6.000E-02  1.651E+00
   1    3    5     3     1    2.0000E+00  2.8252E-01   1.7175E+00  0.000E+00  0.000E+00  0.000E+00  1.07555E+03  1.909E+00  9.636E+00  7.227E-02  1.955E+00
   1    3    6     3     2    1.7175E+00  2.4905E-01   1.4684E+00  0.000E+00  0.000E+00  0.000E+00  1.07264E+03  1.727E+00  8.909E+00  6.682E-02  1.864E+00
   1    3    7     3     3    1.4684E+00  1.9718E-01   1.2712E+00  0.000E+00  0.000E+00  0.000E+00  1.06987E+03  1.555E+00  8.218E+00  5.547E-02  1.777E+00
   1    4    8     3     4    1.2712E+00  2.2567E-01   1.0456E+00  0.000E+00  0.000E+00  0.000E+00  1.06682E+03  1.364E+00  7.455E+00  6.709E-02  1.682E+00
   1    5    8     3     5    1.0456E+00  1.5790E-01   8.8768E-01  0.000E+00  0.000E+00  0.000E+00  1.06362E+03  1.164E+00  6.655E+00  4.991E-02  1.582E+00
   1    6    8     3     6    8.8768E-01  5.5980E-02   8.3170E-01  0.000E+00  0.000E+00  0.000E+00  1.06158E+03  1.036E+00  6.145E+00  1.844E-02  1.518E+00
   1    5   10     4     1    1.0000E+01  9.0919E-02   9.9091E+00  0.000E+00  0.000E+00  0.000E+00  1.07836E+03  6.368E-01  1.000E+01  2.500E-02  1.212E+00
   1    5    9     4     2    9.9091E+00  1.8158E-01   9.7275E+00  0.000E+00  0.000E+00  0.000E+00  1.07154E+03  6.315E-01  1.000E+01  5.000E-02  1.211E+00
   1    6    8     4     3    9.7275E+00  1.2689E-01   9.6006E+00  0.000E+00  0.000E+00  0.000E+00  1.06381E+03  6.256E-01  1.000E+01  3.500E-02  1.209E+00
   1    6    8     5     1    1.0432E+01  2.2686E-01   1.0205E+01  0.000E+00  0.000E+00  0.000E+00  1.05868E+03  6.790E-01  1.542E+01  6.166E-02  1.226E+00
   1    7    7     5     2    1.0205E+01  2.7894E-01   9.9265E+00  0.000E+00  0.000E+00  0.000E+00  1.05417E+03  6.732E-01  1.519E+01  7.594E-02  1.224E+00
   1    8    7     5     3    9.9265E+00  1.9221E-01   9.7343E+00  0.000E+00  0.000E+00  0.000E+00  1.04992E+03  6.676E-01  1.497E+01  5.241E-02  1.223E+00
   1    8    6     5     4    9.7343E+00  1.3577E-01   9.5985E+00  0.000E+00  0.000E+00  0.000E+00  1.04691E+03  6.637E-01  1.482E+01  3.706E-02  1.221E+00
   1    9    6     6     1    6.5110E+01  3.0992E-01   6.4800E+01  0.000E+00  0.000E+00  0.000E+00  1.04489E+03  2.165E+00  1.200E+01  6.000E-02  1.722E+00
   1   10    7     6     2    6.4800E+01  3.0955E-01   6.4490E+01  0.000E+00  0.000E+00  0.000E+00  1.04034E+03  2.159E+00  1.200E+01  6.000E-02  1.720E+00
   1   11    7     6     3    6.4490E+01  3.0918E-01   6.4181E+01  0.000E+00  0.000E+00  0.000E+00  1.03579E+03  2.153E+00  1.200E+01  6.000E-02  1.718E+00
   1   12    7     6     4    6.4181E+01  3.0881E-01   6.3872E+01  0.000E+00  0.000E+00  0.000E+00  1.03124E+03  2.147E+00  1.200E+01  6.000E-02  1.716E+00
   1   13    7     6     5    6.3872E+01  1.9339E-02   6.3853E+01  0.000E+00  0.000E+00  0.000E+00  1.02805E+03  2.143E+00  1.200E+01  2.400E-02  2.686E-01
   1   14    9     7     1    1.5000E+02  1.3312E+00   1.4867E+02  0.000E+00  0.000E+00  0.000E+00  1.03987E+03  2.288E+00  5.529E+01  5.593E-01  7.934E-01
   1   13    8     7     2    1.4867E+02  1.7954E+00   1.4687E+02  0.000E+00  0.000E+00  0.000E+00  1.03478E+03  2.279E+00  5.526E+01  6.148E-01  9.735E-01
   1   13    7     7     3    1.4687E+02  1.3647E+00   1.4551E+02  0.000E+00  0.000E+00  0.000E+00  1.02969E+03  2.271E+00  5.522E+01  5.585E-01  8.145E-01
   1   13    6     8     1    2.0936E+02  9.6434E-01   2.0840E+02  0.000E+00  0.000E+00  0.000E+00  1.02506E+03  3.189E+00  4.624E+01  4.712E-01  6.821E-01
   1   13    5     8     2    2.0840E+02  1.7041E-01   2.0823E+02  0.000E+00  0.000E+00  0.000E+00  1.01881E+03  3.186E+00  4.620E+01  4.708E-01  1.207E-01
   1   13    4     8     3    2.0823E+02 -2.1828E+00   2.1041E+02  0.000E+00  0.000E+00  0.000E+00  1.01257E+03  3.192E+00  4.628E+01  4.716E+00 -1.543E-01
   1   13    3     8     4    2.1041E+02 -3.3093E+00   2.1372E+02  0.000E+00  0.000E+00  0.000E+00  1.00633E+03  3.207E+00  4.651E+01  4.739E+00 -2.328E-01
   1   13    2     8     5    2.1372E+02 -2.5495E+00   2.1627E+02  0.000E+00  0.000E+00  0.000E+00  1.00010E+03  3.224E+00  4.675E+01  4.764E+00 -1.784E-01
   1   13    1     8     6    2.1627E+02 -2.0052E+00   2.1827E+02  0.000E+00  0.000E+00  0.000E+00  9.95112E+02  3.237E+00  4.693E+01  2.870E+00 -2.329E-01





UNSATURATED ZONE PACKAGE VOLUMETRIC BUDGET FOR  TIME STEP    30 STRESS PERIOD    9
  ------------------------------------------------------------------------------



     CUMULATIVE VOLUMES      L**3       RATES FOR THIS TIME STEP      L**3/T
     ------------------                 ------------------------

           IN:                                      IN:
           ---                                      ---
        INFILTRATION =   464241725.3987          INFILTRATION =          49.5675

          OUT:                                     OUT:
          ----                                     ----
              UZF ET =   392144637.2508                UZF ET =          49.5675
        UZF RECHARGE =       73224.0000          UZF RECHARGE =       0.0000E+00

            IN - OUT =    72023864.1479              IN - OUT =       0.0000E+00

          STORAGE:                                 STORAGE:
          --------                                 --------
      STORAGE CHANGE =    72023858.2637        STORAGE CHANGE =       1.0491E-12

 PERCENT DISCREPANCY IS DIFFERENCE BETWEEN IN-OUT MINUS CHANGE IN STORAGE
 DIVIDED BY THE AVERAGE OF IN AND OUT TIMES 100

 PERCENT DISCREPANCY =           0.00     PERCENT DISCREPANCY =           0.00






1
  VOLUMETRIC BUDGET FOR AGRICULTURAL FIELDS AT  END OF TIME STEP   30, STRESS PERIOD   9
  ------------------------------------------------------------------------------

     CUMULATIVE VOLUMES      L**3       RATES FOR THIS TIME STEP      L**3/T
     ------------------                 ------------------------

           IN:                                      IN:
           ---                                      ---
           AG WELLS      =   446336768.0000             AG WELLS      =          48.7200
      DIVERSION SEGMENTS =           0.0000        DIVERSION SEGMENTS =           0.0000
           GW IRRIGATION =           0.0000             GW IRRIGATION =           0.0000
           SW IRRIGATION =           0.0000             SW IRRIGATION =           0.0000
        SYSTEM LOSSES GW =           0.0000          SYSTEM LOSSES GW =           0.0000
        SYSTEM LOSSES SW =           0.0000          SYSTEM LOSSES SW =           0.0000

                TOTAL IN =   446336768.0000                  TOTAL IN =          48.7200

          OUT:                                     OUT:
          ----                                     ----
           AG WELLS      =           0.0000             AG WELLS      =           0.0000
      DIVERSION SEGMENTS =           0.0000        DIVERSION SEGMENTS =           0.0000
           GW IRRIGATION =   446336768.0000             GW IRRIGATION =          48.7200
           SW IRRIGATION =           0.0000             SW IRRIGATION =           0.0000
        SYSTEM LOSSES GW =           0.0000          SYSTEM LOSSES GW =           0.0000
        SYSTEM LOSSES SW =           0.0000          SYSTEM LOSSES SW =           0.0000

               TOTAL OUT =   446336768.0000                 TOTAL OUT =          48.7200

                IN - OUT =           0.0000                  IN - OUT =           0.0000

     PERCENT DISCREPANCY =           0.00         PERCENT DISCREPANCY =           0.00



1
  VOLUMETRIC BUDGET FOR ENTIRE MODEL AT END OF TIME STEP   30, STRESS PERIOD   9
  ------------------------------------------------------------------------------

     CUMULATIVE VOLUMES      L**3       RATES FOR THIS TIME STEP      L**3/T
     ------------------                 ------------------------

           IN:                                      IN:
           ---                                      ---
             STORAGE     =   448566240.0000               STORAGE     =          47.7551
       CONSTANT HEAD     =           0.0000         CONSTANT HEAD     =           0.0000
     HEAD DEP BOUNDS     =     6030661.5000       HEAD DEP BOUNDS     =           0.2854
      STREAM LEAKAGE     =   270659904.0000        STREAM LEAKAGE     =          12.7727
        UZF RECHARGE     =       73223.9531          UZF RECHARGE     =           0.0000
               GW ET     =           0.0000                 GW ET     =           0.0000
     SURFACE LEAKAGE     =           0.0000       SURFACE LEAKAGE     =           0.0000
           AG WELLS      =           0.0000             AG WELLS      =           0.0000

                TOTAL IN =   725330048.0000                  TOTAL IN =          60.8133

          OUT:                                     OUT:
          ----                                     ----
             STORAGE     =    47415212.0000               STORAGE     =           0.7708
       CONSTANT HEAD     =           0.0000         CONSTANT HEAD     =           0.0000
     HEAD DEP BOUNDS     =     6242938.5000       HEAD DEP BOUNDS     =           0.2968
      STREAM LEAKAGE     =   212315968.0000        STREAM LEAKAGE     =          10.0468
        UZF RECHARGE     =           0.0000          UZF RECHARGE     =           0.0000
               GW ET     =    13017709.0000                 GW ET     =           0.9788
     SURFACE LEAKAGE     =           0.0000       SURFACE LEAKAGE     =           0.0000
           AG WELLS      =   446336768.0000             AG WELLS      =          48.7200

               TOTAL OUT =   725328576.0000                 TOTAL OUT =          60.8132

                IN - OUT =        1472.0000                  IN - OUT =       3.0518E-05

     PERCENT DISCREPANCY =           0.00         PERCENT DISCREPANCY =           0.00






         TIME SUMMARY AT END OF TIME STEP   30 IN STRESS PERIOD    9
                    SECONDS     MINUTES      HOURS       DAYS        YEARS
                    -----------------------------------------------------------
   TIME STEP LENGTH  87667.      1461.1      24.352      1.0147     2.77799E-03
 STRESS PERIOD TIME 2.63000E+06  43833.      730.56      30.440     8.33397E-02
         TOTAL TIME 2.11264E+07 3.52107E+05  5868.4      244.52     0.66945    
1
1
                            STRESS PERIOD NO.   10, LENGTH =   2630000.    
                            -----------------------------------------------

                              NUMBER OF TIME STEPS =    30

                               MULTIPLIER FOR DELT =     1.000

                            INITIAL TIME STEP SIZE =   87666.66    

 REUSING NON-PARAMETER GHB CELLS FROM LAST STRESS PERIOD

      2 GHB CELLS

 REUSING STREAM SEGMENT DATA FROM LAST STRESS PERIOD



            AREAL INFILTRATION RATE
 READING ON UNIT   19 WITH FORMAT: (FREE)              

            1           2           3           4           5           6           7           8           9          10
 ........................................................................................................................
   1   1.0000E-10  2.0000E-10   0.000       0.000       0.000       0.000       0.000       0.000       0.000       0.000    
   2   2.0000E-10  1.0000E-10  2.0000E-10   0.000       0.000      8.0000E-10  8.0000E-10  5.0000E-10   0.000       0.000    
   3    0.000      5.0000E-10  1.0000E-10  1.0000E-10  8.0000E-10  8.0000E-10  5.0000E-10  5.0000E-10   0.000       0.000    
   4   8.0000E-10  5.0000E-10  1.0000E-10  1.0000E-10  1.0000E-10  1.0000E-10  1.0000E-10  1.0000E-10  2.0000E-10   0.000    
   5   8.0000E-10  5.0000E-10  1.0000E-10  1.0000E-10  1.0000E-10  1.0000E-10  1.0000E-10  1.0000E-10  1.0000E-10  1.0000E-10
   6   8.0000E-10  5.0000E-10  5.0000E-10  2.0000E-10  2.0000E-10  1.0000E-10  1.0000E-10  1.0000E-10  1.0000E-10  5.0000E-10
   7   8.0000E-10  5.0000E-10  5.0000E-10  2.0000E-10  2.0000E-10  1.0000E-10  1.0000E-10  2.0000E-10  2.0000E-10   0.000    
   8    0.000      5.0000E-10  5.0000E-10  2.0000E-10  2.0000E-10  1.0000E-10  1.0000E-10  2.0000E-10  5.0000E-10   0.000    
   9    0.000      5.0000E-10  5.0000E-10  2.0000E-10  2.0000E-10  1.0000E-10  1.0000E-10  2.0000E-10  5.0000E-10   0.000    
  10    0.000      5.0000E-10  5.0000E-10  2.0000E-10  2.0000E-10  1.0000E-10  1.0000E-10  2.0000E-10  5.0000E-10  8.0000E-10
  11    0.000      1.0000E-10  1.0000E-10  1.0000E-10  1.0000E-10  1.0000E-10  1.0000E-10  2.0000E-10  5.0000E-10   0.000    
  12   1.0000E-10  1.0000E-10  1.0000E-10  1.0000E-10  1.0000E-10  1.0000E-10  1.0000E-10  1.0000E-10  2.0000E-10   0.000    
  13   1.0000E-10  1.0000E-10  2.0000E-10  2.0000E-10  2.0000E-10  2.0000E-10  2.0000E-10  1.0000E-10  1.0000E-10   0.000    
  14    0.000      2.0000E-10  5.0000E-10  5.0000E-10  5.0000E-10  5.0000E-10  5.0000E-10  2.0000E-10  1.0000E-10   0.000    
  15    0.000       0.000      8.0000E-10  8.0000E-10  8.0000E-10  8.0000E-10   0.000       0.000       0.000       0.000    

                  ET RATE =  7.500000E-08

 USING ET EXTINCTION DEPTH FROM PREVIOUS STRESS PERIOD. CURRENT PERIOD IS:      10

 USING EXTINCTION WATER CONTENT FROM PREVIOUS STRESS PERIOD. CURRENT PERIOD IS:      10

 USING AIR ENTRY PRESSURE FROM PREVIOUS STRESS PERIOD. CURRENT PERIOD IS:      10

 USING ROOT PRESSURE HEAD FROM PREVIOUS STRESS PERIOD. CURRENT PERIOD IS:      10

 USING ROOT ACTIVITY FROM PREVIOUS STRESS PERIOD. CURRENT PERIOD IS:      10

 PROCESSING AG STRESS PERIOD DATA

 READING AG STRESS PERIOD DATA

 READING IRRIGATION WELL

 END PROCESSING AG STRESS PERIOD DATA OPTIONS
 
 SOLVING FOR HEAD 
                                                   Max.-Head-Change                         Max.-Flux-Residual
  Residual-Control   Outer-Iter.   Inner-Iter.     Column Row Layer    Maximum-Head-Change  Column Row Layer    Maximum-Flux-Residual          L2-NORM 
          0                 1           2             5    6     1       0.7947599495E-01       5    8    1         0.4321801199E+01      0.1188009909E+02
          0                 2           2             5    6     1      -0.7730680798E-02       5    8    1        -0.4321689520E+00      0.1187960315E+01
          0                 3           2             5    6     1       0.5264302407E-03       5    8    1         0.3025182730E-01      0.8315556284E-01
          0                 4           1             5    6     1      -0.2094915293E-04       5    8    1        -0.1237420179E-02      0.3401160183E-02

    ------------------------------------------------
       NWT REQUIRED            4 OUTER ITERATIONS 
       AND A TOTAL OF          7 INNER ITERATIONS.
    ------------------------------------------------

 NO OUTPUT CONTROL FOR STRESS PERIOD   10   TIME STEP    1
 
 SOLVING FOR HEAD 
                                                   Max.-Head-Change                         Max.-Flux-Residual
  Residual-Control   Outer-Iter.   Inner-Iter.     Column Row Layer    Maximum-Head-Change  Column Row Layer    Maximum-Flux-Residual          L2-NORM 
          0                 1           2             5    8     1       0.1914824030E+00       5    8    1         0.1044689543E+02      0.1775277360E+02
          0                 2           2             4    7     1      -0.4484615277E-01       5    6    1        -0.2463936252E+01      0.5625218219E+01
          0                 3           2             5    8     1      -0.6467319483E-02       5    8    1        -0.3717853147E+00      0.5346300506E+00
          0                 4           2             5    8     1      -0.1826190619E-02       5    8    1        -0.1034126872E+00      0.1046198555E+00
          0                 5           1             5    8     1      -0.5156538258E-03       5    8    1        -0.2925664257E-01      0.2925716903E-01
          0                 6           1             5    8     1      -0.1456010885E-03       5    8    1        -0.8260299252E-02      0.8260388383E-02
          0                 7           1             5    8     1      -0.4111280120E-04       5    8    1        -0.2332405548E-02      0.2332429831E-02

    ------------------------------------------------
       NWT REQUIRED            7 OUTER ITERATIONS 
       AND A TOTAL OF         11 INNER ITERATIONS.
    ------------------------------------------------

 NO OUTPUT CONTROL FOR STRESS PERIOD   10   TIME STEP    2
 
 SOLVING FOR HEAD 
                                                   Max.-Head-Change                         Max.-Flux-Residual
  Residual-Control   Outer-Iter.   Inner-Iter.     Column Row Layer    Maximum-Head-Change  Column Row Layer    Maximum-Flux-Residual          L2-NORM 
          0                 1           2             5    8     1       0.1846842872E+00       5    8    1         0.1006685787E+02      0.1733505689E+02
          0                 2           2             4    7     1      -0.4492856624E-01       5    6    1        -0.2453382777E+01      0.5524537040E+01
          0                 3           2             4    7     1       0.3059190335E-02       5    6    1         0.1717218361E+00      0.3893186137E+00
          0                 4           2             4    7     1      -0.1217281047E-03       5    7    1        -0.7047130953E-02      0.1629950980E-01
          0                 5           1             5    8     1      -0.2758113879E-05       5    8    1        -0.1680170301E-03      0.2618783282E-03

    ------------------------------------------------
       NWT REQUIRED            5 OUTER ITERATIONS 
       AND A TOTAL OF          9 INNER ITERATIONS.
    ------------------------------------------------

 NO OUTPUT CONTROL FOR STRESS PERIOD   10   TIME STEP    3
 
 SOLVING FOR HEAD 
                                                   Max.-Head-Change                         Max.-Flux-Residual
  Residual-Control   Outer-Iter.   Inner-Iter.     Column Row Layer    Maximum-Head-Change  Column Row Layer    Maximum-Flux-Residual          L2-NORM 
          0                 1           2             5    8     1       0.1735640562E+00       5    8    1         0.9446735890E+01      0.1681211715E+02
          0                 2           2             5    8     1      -0.5083336554E-01       5    8    1        -0.2814199342E+01      0.6153882080E+01
          0                 3           2             5    8     1       0.3458792647E-02       5    8    1         0.1968326512E+00      0.4306685216E+00
          0                 4           2             5    8     1      -0.1374662613E-03       5    8    1        -0.8040730796E-02      0.1761014573E-01
          0                 5           1             5    8     1       0.1688657591E-05       5    8    1         0.1015088637E-03      0.2230039300E-03

    ------------------------------------------------
       NWT REQUIRED            5 OUTER ITERATIONS 
       AND A TOTAL OF          9 INNER ITERATIONS.
    ------------------------------------------------

 NO OUTPUT CONTROL FOR STRESS PERIOD   10   TIME STEP    4
 
 SOLVING FOR HEAD 
                                                   Max.-Head-Change                         Max.-Flux-Residual
  Residual-Control   Outer-Iter.   Inner-Iter.     Column Row Layer    Maximum-Head-Change  Column Row Layer    Maximum-Flux-Residual          L2-NORM 
          0                 1           2             5    8     1       0.1668789434E+00       5    8    1         0.9075144223E+01      0.1641534118E+02
          0                 2           2             5    8     1      -0.5018327542E-01       5    8    1        -0.2777055490E+01      0.6121110560E+01
          0                 3           2             5    8     1       0.3414557128E-02       5    8    1         0.1942345300E+00      0.4283758338E+00
          0                 4           2             5    8     1      -0.1357081878E-03       5    8    1        -0.7934593192E-02      0.1751647534E-01
          0                 5           1             5    8     1       0.1667061242E-05       5    8    1         0.1001687990E-03      0.2218342058E-03

    ------------------------------------------------
       NWT REQUIRED            5 OUTER ITERATIONS 
       AND A TOTAL OF          9 INNER ITERATIONS.
    ------------------------------------------------

 NO OUTPUT CONTROL FOR STRESS PERIOD   10   TIME STEP    5
 
 SOLVING FOR HEAD 
                                                   Max.-Head-Change                         Max.-Flux-Residual
  Residual-Control   Outer-Iter.   Inner-Iter.     Column Row Layer    Maximum-Head-Change  Column Row Layer    Maximum-Flux-Residual          L2-NORM 
          0                 1           2             5    8     1       0.1606248331E+00       5    8    1         0.8727750528E+01      0.1604189629E+02
          0                 2           2             5    8     1      -0.4957510193E-01       5    8    1        -0.2742330639E+01      0.6089935806E+01
          0                 3           2             5    8     1       0.3373173797E-02       5    8    1         0.1918056106E+00      0.4261948270E+00
          0                 4           2             5    8     1      -0.1340634697E-03       5    8    1        -0.7835367836E-02      0.1742735614E-01
          0                 5           1             5    8     1       0.1646857239E-05       5    8    1         0.9891599348E-04      0.2206923357E-03

    ------------------------------------------------
       NWT REQUIRED            5 OUTER ITERATIONS 
       AND A TOTAL OF          9 INNER ITERATIONS.
    ------------------------------------------------

 NO OUTPUT CONTROL FOR STRESS PERIOD   10   TIME STEP    6
 
 SOLVING FOR HEAD 
                                                   Max.-Head-Change                         Max.-Flux-Residual
  Residual-Control   Outer-Iter.   Inner-Iter.     Column Row Layer    Maximum-Head-Change  Column Row Layer    Maximum-Flux-Residual          L2-NORM 
          0                 1           2             5    8     1       0.1547702208E+00       5    8    1         0.8402772897E+01      0.1568979348E+02
          0                 2           2             4    7     1      -0.4482148104E-01       5    7    1        -0.2437456985E+01      0.5795339967E+01
          0                 3           2             5    8     1      -0.9013005438E-02       5    8    1        -0.5164108409E+00      0.6408058042E+00
          0                 4           2             5    8     1       0.6133904256E-03       5    8    1         0.3599626381E-01      0.3927646875E-01
          0                 5           1             5    8     1      -0.2438402528E-04       5    8    1        -0.1465637994E-02      0.1481240039E-02

    ------------------------------------------------
       NWT REQUIRED            5 OUTER ITERATIONS 
       AND A TOTAL OF          9 INNER ITERATIONS.
    ------------------------------------------------

 NO OUTPUT CONTROL FOR STRESS PERIOD   10   TIME STEP    7
 
 SOLVING FOR HEAD 
                                                   Max.-Head-Change                         Max.-Flux-Residual
  Residual-Control   Outer-Iter.   Inner-Iter.     Column Row Layer    Maximum-Head-Change  Column Row Layer    Maximum-Flux-Residual          L2-NORM 
          0                 1           2             5    8     1       0.1492855071E+00       5    8    1         0.8098540001E+01      0.1535725195E+02
          0                 2           2             4    7     1      -0.4476623527E-01       5    7    1        -0.2432341626E+01      0.5404357358E+01
          0                 3           2             4    7     1       0.3048078731E-02       5    7    1         0.1702486607E+00      0.3784218885E+00
          0                 4           2             4    7     1      -0.1213033634E-03       5    7    1        -0.6965989863E-02      0.1555142255E-01
          0                 5           1             5    8     1      -0.8762328143E-05       5    8    1        -0.4997084832E-03      0.5363462198E-03

    ------------------------------------------------
       NWT REQUIRED            5 OUTER ITERATIONS 
       AND A TOTAL OF          9 INNER ITERATIONS.
    ------------------------------------------------

 NO OUTPUT CONTROL FOR STRESS PERIOD   10   TIME STEP    8
 
 SOLVING FOR HEAD 
                                                   Max.-Head-Change                         Max.-Flux-Residual
  Residual-Control   Outer-Iter.   Inner-Iter.     Column Row Layer    Maximum-Head-Change  Column Row Layer    Maximum-Flux-Residual          L2-NORM 
          0                 1           2             5    8     1       0.1413010682E+00       5    8    1         0.7654353050E+01      0.1498534259E+02
          0                 2           2             4    7     1      -0.4473373505E-01       5    7    1        -0.2430811145E+01      0.5448867884E+01
          0                 3           2             4    7     1       0.3045920901E-02       5    7    1         0.1701406027E+00      0.3813783389E+00
          0                 4           2             4    7     1      -0.1212021719E-03       5    7    1        -0.6958885802E-02      0.1559824975E-01
          0                 5           1             4    7     1       0.1494474384E-05       5    7    1         0.8819052937E-04      0.1976615336E-03

    ------------------------------------------------
       NWT REQUIRED            5 OUTER ITERATIONS 
       AND A TOTAL OF          9 INNER ITERATIONS.
    ------------------------------------------------

 NO OUTPUT CONTROL FOR STRESS PERIOD   10   TIME STEP    9
 
 SOLVING FOR HEAD 
                                                   Max.-Head-Change                         Max.-Flux-Residual
  Residual-Control   Outer-Iter.   Inner-Iter.     Column Row Layer    Maximum-Head-Change  Column Row Layer    Maximum-Flux-Residual          L2-NORM 
          0                 1           2             4    8     1       0.1858308885E+00       4    8    1         0.9930572132E+01      0.1682542409E+02
          0                 2           2             4    8     1      -0.5251515636E-01       4    8    1        -0.2862554043E+01      0.6165099278E+01
          0                 3           2             4    8     1       0.3573146802E-02       4    8    1         0.2002124032E+00      0.4313934758E+00
          0                 4           2             4    8     1      -0.1420059192E-03       4    8    1        -0.8178638115E-02      0.1763572727E-01
          0                 5           1             4    8     1       0.1744220086E-05       4    8    1         0.1032436269E-03      0.2231629593E-03

    ------------------------------------------------
       NWT REQUIRED            5 OUTER ITERATIONS 
       AND A TOTAL OF          9 INNER ITERATIONS.
    ------------------------------------------------

 NO OUTPUT CONTROL FOR STRESS PERIOD   10   TIME STEP   10
 
 SOLVING FOR HEAD 
                                                   Max.-Head-Change                         Max.-Flux-Residual
  Residual-Control   Outer-Iter.   Inner-Iter.     Column Row Layer    Maximum-Head-Change  Column Row Layer    Maximum-Flux-Residual          L2-NORM 
          0                 1           2             5    7     1       0.1845097829E+00       5    7    1         0.9936591216E+01      0.1852719473E+02
          0                 2           2             5    7     1      -0.5242704882E-01       5    7    1        -0.2863180234E+01      0.6330596352E+01
          0                 3           2             5    7     1       0.3567182922E-02       5    7    1         0.2002555680E+00      0.4429148168E+00
          0                 4           2             5    7     1      -0.1417719146E-03       5    7    1        -0.8180424803E-02      0.1810264951E-01
          0                 5           1             5    7     1       0.1741463177E-05       5    7    1         0.1032669338E-03      0.2289070515E-03

    ------------------------------------------------
       NWT REQUIRED            5 OUTER ITERATIONS 
       AND A TOTAL OF          9 INNER ITERATIONS.
    ------------------------------------------------

 NO OUTPUT CONTROL FOR STRESS PERIOD   10   TIME STEP   11
 
 SOLVING FOR HEAD 
                                                   Max.-Head-Change                         Max.-Flux-Residual
  Residual-Control   Outer-Iter.   Inner-Iter.     Column Row Layer    Maximum-Head-Change  Column Row Layer    Maximum-Flux-Residual          L2-NORM 
          0                 1           2             5    7     1       0.1825290352E+00       5    7    1         0.9757192935E+01      0.1984235550E+02
          0                 2           2             5    6     1      -0.5018724409E-01       5    6    1        -0.2786949968E+01      0.5414466847E+01
          0                 3           2             5    7     1      -0.8507580875E-02       5    7    1        -0.4911264082E+00      0.6720500270E+00
          0                 4           2             5    7     1      -0.2401740279E-02       5    7    1        -0.1359460319E+00      0.1593902986E+00
          0                 5           2             5    7     1      -0.6780151098E-03       5    7    1        -0.3847375918E-01      0.4517587439E-01
          0                 6           2             5    7     1      -0.1914014725E-03       5    7    1        -0.1085965740E-01      0.1283057381E-01
          0                 7           1             5    7     1      -0.5403112312E-04       5    7    1        -0.3065558956E-02      0.3645045058E-02

    ------------------------------------------------
       NWT REQUIRED            7 OUTER ITERATIONS 
       AND A TOTAL OF         13 INNER ITERATIONS.
    ------------------------------------------------

 NO OUTPUT CONTROL FOR STRESS PERIOD   10   TIME STEP   12
 
 SOLVING FOR HEAD 
                                                   Max.-Head-Change                         Max.-Flux-Residual
  Residual-Control   Outer-Iter.   Inner-Iter.     Column Row Layer    Maximum-Head-Change  Column Row Layer    Maximum-Flux-Residual          L2-NORM 
          0                 1           2             5    7     1       0.1776878165E+00       5    7    1         0.9489616770E+01      0.1947034880E+02
          0                 2           2             5    6     1      -0.4930568939E-01       5    6    1        -0.2772670242E+01      0.5149874685E+01
          0                 3           2             5    6     1       0.3413941964E-02       5    6    1         0.1942104067E+00      0.3891547420E+00
          0                 4           2             5    7     1       0.7651322254E-03       5    7    1         0.4258130471E-01      0.4498945348E-01
          0                 5           2             5    7     1       0.2005343451E-03       5    7    1         0.1106583730E-01      0.1106960078E-01
          0                 6           1             5    7     1       0.5255832376E-04       5    7    1         0.2901052363E-02      0.2901322174E-02

    ------------------------------------------------
       NWT REQUIRED            6 OUTER ITERATIONS 
       AND A TOTAL OF         11 INNER ITERATIONS.
    ------------------------------------------------

 NO OUTPUT CONTROL FOR STRESS PERIOD   10   TIME STEP   13
 
 SOLVING FOR HEAD 
                                                   Max.-Head-Change                         Max.-Flux-Residual
  Residual-Control   Outer-Iter.   Inner-Iter.     Column Row Layer    Maximum-Head-Change  Column Row Layer    Maximum-Flux-Residual          L2-NORM 
          0                 1           2             5    7     1       0.1695063211E+00       5    7    1         0.9036497105E+01      0.1899065364E+02
          0                 2           2             4    8     1      -0.5062309032E-01       4    8    1        -0.2763795143E+01      0.6101784409E+01
          0                 3           2             5    8     1      -0.6300863513E-02       5    8    1        -0.3630635587E+00      0.5415841934E+00
          0                 4           2             5    8     1       0.4288175189E-03       5    8    1         0.2524155616E-01      0.3019348646E-01
          0                 5           1             5    8     1      -0.1704689897E-04       5    8    1        -0.1024928046E-02      0.1048836097E-02

    ------------------------------------------------
       NWT REQUIRED            5 OUTER ITERATIONS 
       AND A TOTAL OF          9 INNER ITERATIONS.
    ------------------------------------------------

 NO OUTPUT CONTROL FOR STRESS PERIOD   10   TIME STEP   14
 
 SOLVING FOR HEAD 
                                                   Max.-Head-Change                         Max.-Flux-Residual
  Residual-Control   Outer-Iter.   Inner-Iter.     Column Row Layer    Maximum-Head-Change  Column Row Layer    Maximum-Flux-Residual          L2-NORM 
          0                 1           2             5    7     1       0.1656533606E+00       5    7    1         0.8819363405E+01      0.1877516403E+02
          0                 2           2             4    8     1      -0.4930174710E-01       5    7    1        -0.2751480763E+01      0.4849018459E+01
          0                 3           2             5    6     1      -0.8395836844E-02       5    6    1        -0.4816765670E+00      0.5948728740E+00
          0                 4           2             5    6     1      -0.2371568396E-02       5    6    1        -0.1342919354E+00      0.1400617943E+00
          0                 5           2             5    6     1      -0.6698802065E-03       5    6    1        -0.3799529428E-01      0.3948378677E-01
          0                 6           2             5    6     1      -0.1892120982E-03       5    6    1        -0.1073115105E-01      0.1115579076E-01
          0                 7           1             5    6     1      -0.5344303113E-04       5    6    1        -0.3030991858E-02      0.3152218333E-02

    ------------------------------------------------
       NWT REQUIRED            7 OUTER ITERATIONS 
       AND A TOTAL OF         13 INNER ITERATIONS.
    ------------------------------------------------

 NO OUTPUT CONTROL FOR STRESS PERIOD   10   TIME STEP   15
 
 SOLVING FOR HEAD 
                                                   Max.-Head-Change                         Max.-Flux-Residual
  Residual-Control   Outer-Iter.   Inner-Iter.     Column Row Layer    Maximum-Head-Change  Column Row Layer    Maximum-Flux-Residual          L2-NORM 
          0                 1           2             4    7     1       0.1934792116E+00       4    7    1         0.1022352264E+02      0.2014154292E+02
          0                 2           2             4    8     1      -0.4925488452E-01       5    7    1        -0.2739789406E+01      0.4734206314E+01
          0                 3           2             4    8     1       0.3340386850E-02       5    7    1         0.1917648334E+00      0.3400517189E+00
          0                 4           2             5    6     1       0.3611207745E-03       5    6    1         0.2015138986E-01      0.2594351573E-01
          0                 5           1             5    6     1       0.9471084198E-04       5    6    1         0.5223148856E-02      0.5878355756E-02

    ------------------------------------------------
       NWT REQUIRED            5 OUTER ITERATIONS 
       AND A TOTAL OF          9 INNER ITERATIONS.
    ------------------------------------------------

 NO OUTPUT CONTROL FOR STRESS PERIOD   10   TIME STEP   16
 
 SOLVING FOR HEAD 
                                                   Max.-Head-Change                         Max.-Flux-Residual
  Residual-Control   Outer-Iter.   Inner-Iter.     Column Row Layer    Maximum-Head-Change  Column Row Layer    Maximum-Flux-Residual          L2-NORM 
          0                 1           2             4    7     1       0.1892195870E+00       4    7    1         0.9991060307E+01      0.1973861510E+02
          0                 2           2             4    7     1      -0.5298431022E-01       4    7    1        -0.2868592893E+01      0.5656366773E+01
          0                 3           2             4    8     1      -0.1052902267E-01       4    8    1        -0.5922926183E+00      0.6888074292E+00
          0                 4           2             4    8     1       0.2177473296E-03       4    8    1         0.1269611617E-01      0.2055112141E-01
          0                 5           1             4    8     1      -0.8656054861E-05       4    8    1        -0.5131006023E-03      0.6404903949E-03

    ------------------------------------------------
       NWT REQUIRED            5 OUTER ITERATIONS 
       AND A TOTAL OF          9 INNER ITERATIONS.
    ------------------------------------------------

 NO OUTPUT CONTROL FOR STRESS PERIOD   10   TIME STEP   17
 
 SOLVING FOR HEAD 
                                                   Max.-Head-Change                         Max.-Flux-Residual
  Residual-Control   Outer-Iter.   Inner-Iter.     Column Row Layer    Maximum-Head-Change  Column Row Layer    Maximum-Flux-Residual          L2-NORM 
          0                 1           2             4    7     1       0.1864095193E+00       4    7    1         0.9840543988E+01      0.1941317292E+02
          0                 2           2             4    7     1      -0.5158861725E-01       4    7    1        -0.2853548190E+01      0.5211412346E+01
          0                 3           2             4    7     1       0.3502841738E-02       4    7    1         0.1996651685E+00      0.3766266243E+00
          0                 4           2             5    7     1      -0.3599536173E-03       5    7    1        -0.2008796976E-01      0.2954357214E-01
          0                 5           1             5    7     1      -0.1015317681E-03       5    7    1        -0.5769658422E-02      0.7119393958E-02
          0                 6           1             5    7     1      -0.2863877391E-04       5    7    1        -0.1626144661E-02      0.1973614902E-02

    ------------------------------------------------
       NWT REQUIRED            6 OUTER ITERATIONS 
       AND A TOTAL OF         10 INNER ITERATIONS.
    ------------------------------------------------

 NO OUTPUT CONTROL FOR STRESS PERIOD   10   TIME STEP   18
 
 SOLVING FOR HEAD 
                                                   Max.-Head-Change                         Max.-Flux-Residual
  Residual-Control   Outer-Iter.   Inner-Iter.     Column Row Layer    Maximum-Head-Change  Column Row Layer    Maximum-Flux-Residual          L2-NORM 
          0                 1           2             4    7     1       0.1860765616E+00       4    7    1         0.9767226878E+01      0.2068265831E+02
          0                 2           2             5    6     1      -0.4686421651E-01       5    6    1        -0.2609564580E+01      0.4958571935E+01
          0                 3           2             4    7     1      -0.9570312933E-02       4    7    1        -0.5356203245E+00      0.6135270183E+00
          0                 4           2             4    7     1      -0.2749402867E-02       4    7    1        -0.1538992714E+00      0.1545548285E+00
          0                 5           1             4    7     1      -0.7898419880E-03       4    7    1        -0.4419102115E-01      0.4419337922E-01
          0                 6           1             4    7     1      -0.2268986989E-03       4    7    1        -0.1269568952E-01      0.1269582132E-01
          0                 7           1             4    7     1      -0.6517990393E-04       4    7    1        -0.3646971296E-02      0.3647011795E-02

    ------------------------------------------------
       NWT REQUIRED            7 OUTER ITERATIONS 
       AND A TOTAL OF         11 INNER ITERATIONS.
    ------------------------------------------------

 NO OUTPUT CONTROL FOR STRESS PERIOD   10   TIME STEP   19
 
 SOLVING FOR HEAD 
                                                   Max.-Head-Change                         Max.-Flux-Residual
  Residual-Control   Outer-Iter.   Inner-Iter.     Column Row Layer    Maximum-Head-Change  Column Row Layer    Maximum-Flux-Residual          L2-NORM 
          0                 1           2             4    7     1       0.1850847296E+00       4    7    1         0.9719055743E+01      0.2042684600E+02
          0                 2           2             4    8     1      -0.4829004939E-01       5    7    1        -0.2675179676E+01      0.5304730912E+01
          0                 3           2             4    7     1       0.3852068467E-02       4    7    1         0.2042151619E+00      0.4196080154E+00
          0                 4           2             4    7     1       0.1031172317E-02       4    7    1         0.5627996738E-01      0.5837546752E-01
          0                 5           1             4    7     1       0.2761375007E-03       4    7    1         0.1500597724E-01      0.1508290491E-01
          0                 6           1             4    7     1       0.7397365128E-04       4    7    1         0.4019332655E-02      0.4047687497E-02

    ------------------------------------------------
       NWT REQUIRED            6 OUTER ITERATIONS 
       AND A TOTAL OF         10 INNER ITERATIONS.
    ------------------------------------------------

 NO OUTPUT CONTROL FOR STRESS PERIOD   10   TIME STEP   20
 
 SOLVING FOR HEAD 
                                                   Max.-Head-Change                         Max.-Flux-Residual
  Residual-Control   Outer-Iter.   Inner-Iter.     Column Row Layer    Maximum-Head-Change  Column Row Layer    Maximum-Flux-Residual          L2-NORM 
          0                 1           2             4    7     1       0.1805708811E+00       4    7    1         0.9478034899E+01      0.2008293028E+02
          0                 2           2             5    7     1      -0.4912430786E-01       5    7    1        -0.2671067026E+01      0.5888810937E+01
          0                 3           2             5    7     1       0.3342385418E-02       5    7    1         0.1868181668E+00      0.4118642322E+00
          0                 4           2             5    7     1      -0.1328330066E-03       5    7    1        -0.7631470181E-02      0.1682409609E-01
          0                 5           1             5    7     1       0.1631478162E-05       5    7    1         0.9633547688E-04      0.2124049193E-03

    ------------------------------------------------
       NWT REQUIRED            5 OUTER ITERATIONS 
       AND A TOTAL OF          9 INNER ITERATIONS.
    ------------------------------------------------

 NO OUTPUT CONTROL FOR STRESS PERIOD   10   TIME STEP   21
 
 SOLVING FOR HEAD 
                                                   Max.-Head-Change                         Max.-Flux-Residual
  Residual-Control   Outer-Iter.   Inner-Iter.     Column Row Layer    Maximum-Head-Change  Column Row Layer    Maximum-Flux-Residual          L2-NORM 
          0                 1           2             4    7     1       0.1789786990E+00       4    7    1         0.9397340460E+01      0.1978187631E+02
          0                 2           2             4    7     1      -0.5223388058E-01       4    7    1        -0.2809237006E+01      0.6082872854E+01
          0                 3           2             5    6     1      -0.5638731542E-02       5    6    1        -0.3259433519E+00      0.5309283982E+00
          0                 4           2             5    6     1      -0.1592441545E-02       5    6    1        -0.9009583534E-01      0.9173304043E-01
          0                 5           2             5    6     1      -0.4497132958E-03       5    6    1        -0.2551432274E-01      0.2551490467E-01
          0                 6           2             5    6     1      -0.1269981414E-03       5    6    1        -0.7204288237E-02      0.7204374255E-02
          0                 7           1             5    6     1      -0.3586316998E-04       5    6    1        -0.2034414174E-02      0.2034435540E-02

    ------------------------------------------------
       NWT REQUIRED            7 OUTER ITERATIONS 
       AND A TOTAL OF         13 INNER ITERATIONS.
    ------------------------------------------------

 NO OUTPUT CONTROL FOR STRESS PERIOD   10   TIME STEP   22
 
 SOLVING FOR HEAD 
                                                   Max.-Head-Change                         Max.-Flux-Residual
  Residual-Control   Outer-Iter.   Inner-Iter.     Column Row Layer    Maximum-Head-Change  Column Row Layer    Maximum-Flux-Residual          L2-NORM 
          0                 1           2             4    7     1       0.1772632667E+00       4    7    1         0.9308434132E+01      0.1950110635E+02
          0                 2           2             4    7     1      -0.5194047107E-01       4    7    1        -0.2800351439E+01      0.5340189756E+01
          0                 3           2             5    8     1      -0.6164987643E-02       5    8    1        -0.3481260223E+00      0.4855334794E+00
          0                 4           2             5    8     1      -0.1740537369E-02       5    8    1        -0.9892018020E-01      0.1004707691E+00
          0                 5           1             5    8     1      -0.4913862160E-03       5    8    1        -0.2787581555E-01      0.2789426240E-01
          0                 6           1             5    8     1      -0.1387242377E-03       5    8    1        -0.7871576520E-02      0.7875145851E-02
          0                 7           1             5    8     1      -0.3916258946E-04       5    8    1        -0.2222144099E-02      0.2223175498E-02

    ------------------------------------------------
       NWT REQUIRED            7 OUTER ITERATIONS 
       AND A TOTAL OF         11 INNER ITERATIONS.
    ------------------------------------------------

 NO OUTPUT CONTROL FOR STRESS PERIOD   10   TIME STEP   23
 
 SOLVING FOR HEAD 
                                                   Max.-Head-Change                         Max.-Flux-Residual
  Residual-Control   Outer-Iter.   Inner-Iter.     Column Row Layer    Maximum-Head-Change  Column Row Layer    Maximum-Flux-Residual          L2-NORM 
          0                 1           2             4    7     1       0.1755818913E+00       4    7    1         0.9220322225E+01      0.1921290686E+02
          0                 2           2             4    6     1      -0.4965145730E-01       4    6    1        -0.2736318630E+01      0.3645562178E+01
          0                 3           2             4    7     1      -0.9029466432E-02       4    7    1        -0.5043442496E+00      0.5854306413E+00
          0                 4           2             4    7     1      -0.2618518589E-02       4    7    1        -0.1453044838E+00      0.1575005216E+00
          0                 5           2             4    7     1      -0.7597317318E-03       4    7    1        -0.4217316182E-01      0.4598212617E-01
          0                 6           1             4    7     1      -0.2205319870E-03       4    7    1        -0.1223644651E-01      0.1344566187E-01
          0                 7           1             4    7     1      -0.6404507300E-04       4    7    1        -0.3552181789E-02      0.3977355223E-02

    ------------------------------------------------
       NWT REQUIRED            7 OUTER ITERATIONS 
       AND A TOTAL OF         12 INNER ITERATIONS.
    ------------------------------------------------

 NO OUTPUT CONTROL FOR STRESS PERIOD   10   TIME STEP   24
 
 SOLVING FOR HEAD 
                                                   Max.-Head-Change                         Max.-Flux-Residual
  Residual-Control   Outer-Iter.   Inner-Iter.     Column Row Layer    Maximum-Head-Change  Column Row Layer    Maximum-Flux-Residual          L2-NORM 
          0                 1           2             4    7     1       0.1746520907E+00       4    7    1         0.9175901467E+01      0.1891101432E+02
          0                 2           2             5    6     1      -0.4483608368E-01       5    6    1        -0.2529173929E+01      0.2923543676E+01
          0                 3           2             4    6     1      -0.5105617707E-02       4    6    1        -0.2915881853E+00      0.3912402726E+00
          0                 4           2             4    6     1      -0.1446638656E-02       4    6    1        -0.8167171786E-01      0.9479506613E-01
          0                 5           2             4    6     1      -0.4102811845E-03       4    6    1        -0.2317874725E-01      0.2624255775E-01
          0                 6           2             4    6     1      -0.1164641519E-03       4    6    1        -0.6574747247E-02      0.7302902504E-02
          0                 7           1             4    6     1      -0.3308813211E-04       4    6    1        -0.1866719949E-02      0.2038233972E-02

    ------------------------------------------------
       NWT REQUIRED            7 OUTER ITERATIONS 
       AND A TOTAL OF         13 INNER ITERATIONS.
    ------------------------------------------------

 NO OUTPUT CONTROL FOR STRESS PERIOD   10   TIME STEP   25
 
 SOLVING FOR HEAD 
                                                   Max.-Head-Change                         Max.-Flux-Residual
  Residual-Control   Outer-Iter.   Inner-Iter.     Column Row Layer    Maximum-Head-Change  Column Row Layer    Maximum-Flux-Residual          L2-NORM 
          0                 1           2             4    7     1       0.1712029785E+00       4    7    1         0.8994175288E+01      0.1859180186E+02
          0                 2           2             5    7     1      -0.4801072544E-01       5    7    1        -0.2613198744E+01      0.5599242220E+01
          0                 3           2             5    7     1       0.3267709577E-02       5    7    1         0.1827702210E+00      0.4018840231E+00
          0                 4           2             4    6     1       0.4284073364E-03       4    6    1         0.2357147802E-01      0.2842001977E-01
          0                 5           1             4    6     1      -0.4165074466E-04       4    6    1        -0.2339378490E-02      0.2350633258E-02

    ------------------------------------------------
       NWT REQUIRED            5 OUTER ITERATIONS 
       AND A TOTAL OF          9 INNER ITERATIONS.
    ------------------------------------------------

 NO OUTPUT CONTROL FOR STRESS PERIOD   10   TIME STEP   26
 
 SOLVING FOR HEAD 
                                                   Max.-Head-Change                         Max.-Flux-Residual
  Residual-Control   Outer-Iter.   Inner-Iter.     Column Row Layer    Maximum-Head-Change  Column Row Layer    Maximum-Flux-Residual          L2-NORM 
          0                 1           2             4    7     1       0.1698296014E+00       4    7    1         0.8925544899E+01      0.1832452826E+02
          0                 2           2             4    7     1      -0.5135659538E-01       4    7    1        -0.2762084948E+01      0.6380327831E+01
          0                 3           2             4    7     1       0.3494251117E-02       4    7    1         0.1931831015E+00      0.4462511633E+00
          0                 4           2             4    7     1      -0.1388664633E-03       4    7    1        -0.7891363156E-02      0.1822929572E-01
          0                 5           1             4    7     1       0.1705506078E-05       4    7    1         0.9961192313E-04      0.2301204548E-03

    ------------------------------------------------
       NWT REQUIRED            5 OUTER ITERATIONS 
       AND A TOTAL OF          9 INNER ITERATIONS.
    ------------------------------------------------

 NO OUTPUT CONTROL FOR STRESS PERIOD   10   TIME STEP   27
 
 SOLVING FOR HEAD 
                                                   Max.-Head-Change                         Max.-Flux-Residual
  Residual-Control   Outer-Iter.   Inner-Iter.     Column Row Layer    Maximum-Head-Change  Column Row Layer    Maximum-Flux-Residual          L2-NORM 
          0                 1           2             4    7     1       0.1680152927E+00       4    7    1         0.8832689304E+01      0.1724010135E+02
          0                 2           2             4    7     1      -0.5118010689E-01       4    7    1        -0.2752804868E+01      0.6197897373E+01
          0                 3           2             4    7     1       0.3482242157E-02       4    7    1         0.1925339793E+00      0.4335024909E+00
          0                 4           2             4    7     1      -0.1383892949E-03       4    7    1        -0.7864848368E-02      0.1771075555E-01
          0                 5           1             4    7     1       0.1699648599E-05       4    7    1         0.9927727206E-04      0.2237129197E-03

    ------------------------------------------------
       NWT REQUIRED            5 OUTER ITERATIONS 
       AND A TOTAL OF          9 INNER ITERATIONS.
    ------------------------------------------------

 NO OUTPUT CONTROL FOR STRESS PERIOD   10   TIME STEP   28
 
 SOLVING FOR HEAD 
                                                   Max.-Head-Change                         Max.-Flux-Residual
  Residual-Control   Outer-Iter.   Inner-Iter.     Column Row Layer    Maximum-Head-Change  Column Row Layer    Maximum-Flux-Residual          L2-NORM 
          0                 1           2             4    7     1       0.1661812662E+00       4    7    1         0.8738431461E+01      0.1698454978E+02
          0                 2           2             4    6     1      -0.4864873045E-01       4    6    1        -0.2652788512E+01      0.6051082827E+01
          0                 3           2             4    6     1       0.3236468714E-02       4    6    1         0.1855403179E+00      0.4087619571E+00
          0                 4           2             4    7     1       0.1496595384E-03       4    7    1         0.8929893673E-02      0.1823014395E-01
          0                 5           1             4    7     1      -0.5949544116E-05       4    7    1        -0.3560202856E-03      0.4111381780E-03

    ------------------------------------------------
       NWT REQUIRED            5 OUTER ITERATIONS 
       AND A TOTAL OF          9 INNER ITERATIONS.
    ------------------------------------------------

 NO OUTPUT CONTROL FOR STRESS PERIOD   10   TIME STEP   29
 
 SOLVING FOR HEAD 
                                                   Max.-Head-Change                         Max.-Flux-Residual
  Residual-Control   Outer-Iter.   Inner-Iter.     Column Row Layer    Maximum-Head-Change  Column Row Layer    Maximum-Flux-Residual          L2-NORM 
          0                 1           2             4    7     1       0.1643338968E+00       4    7    1         0.8643144213E+01      0.1674185004E+02
          0                 2           2             4    6     1      -0.4746968021E-01       4    6    1        -0.2640855974E+01      0.4830311798E+01
          0                 3           2             5    6     1      -0.6169636784E-02       5    6    1        -0.3514822365E+00      0.4393883995E+00
          0                 4           2             5    6     1      -0.1742483142E-02       5    6    1        -0.9883290546E-01      0.1013193033E+00
          0                 5           2             5    6     1      -0.4921161388E-03       5    6    1        -0.2791324468E-01      0.2843056031E-01
          0                 6           2             5    6     1      -0.1389815678E-03       5    6    1        -0.7883579080E-02      0.8035174889E-02
          0                 7           1             5    6     1      -0.3924980114E-04       5    6    1        -0.2226375605E-02      0.2270898990E-02

    ------------------------------------------------
       NWT REQUIRED            7 OUTER ITERATIONS 
       AND A TOTAL OF         13 INNER ITERATIONS.
    ------------------------------------------------

 NO OUTPUT CONTROL FOR STRESS PERIOD   10   TIME STEP   30



 STREAM LISTING     PERIOD     10   STEP       30

 LAYER ROW COL. STREAM  RCH.  FLOW INTO     FLOW TO   FLOW OUT OF   OVRLND.     DIRECT     STREAM       STREAM     STREAM     STREAM   STREAMBED  STREAMBED
                SEG.NO.  NO.  STRM. RCH.    AQUIFER    STRM. RCH.    RUNOFF     PRECIP       ET          HEAD       DEPTH      WIDTH   CONDCTNC.   GRADIENT

   1    1    1     1     1    4.7000E+01  3.2684E-01   4.6673E+01  0.000E+00  0.000E+00  0.000E+00  1.09443E+03  1.380E+00  1.658E+01  7.462E-02  1.460E+00
   1    2    2     1     2    4.6673E+01  5.0637E-01   4.6166E+01  0.000E+00  0.000E+00  0.000E+00  1.08944E+03  1.377E+00  1.653E+01  1.157E-01  1.459E+00
   1    3    3     1     3    4.6166E+01  4.3205E-01   4.5734E+01  0.000E+00  0.000E+00  0.000E+00  1.08379E+03  1.374E+00  1.646E+01  9.878E-02  1.458E+00
   1    3    4     1     4    4.5734E+01  3.9802E-01   4.5336E+01  0.000E+00  0.000E+00  0.000E+00  1.07878E+03  1.371E+00  1.641E+01  9.105E-02  1.457E+00
   1    4    5     2     1    4.3336E+01  3.6469E-01   4.2972E+01  0.000E+00  0.000E+00  0.000E+00  1.07361E+03  1.676E+00  1.200E+01  7.800E-02  1.559E+00
   1    5    6     2     2    4.2972E+01  2.8008E-01   4.2692E+01  0.000E+00  0.000E+00  0.000E+00  1.06818E+03  1.668E+00  1.200E+01  6.000E-02  1.556E+00
   1    6    6     2     3    4.2692E+01  2.7969E-01   4.2412E+01  0.000E+00  0.000E+00  0.000E+00  1.06345E+03  1.661E+00  1.200E+01  6.000E-02  1.554E+00
   1    7    6     2     4    4.2412E+01  2.7930E-01   4.2133E+01  0.000E+00  0.000E+00  0.000E+00  1.05873E+03  1.655E+00  1.200E+01  6.000E-02  1.552E+00
   1    8    6     2     5    4.2133E+01  2.7890E-01   4.1854E+01  0.000E+00  0.000E+00  0.000E+00  1.05401E+03  1.648E+00  1.200E+01  6.000E-02  1.549E+00
   1    3    5     3     1    2.0000E+00  2.8252E-01   1.7175E+00  0.000E+00  0.000E+00  0.000E+00  1.07555E+03  1.909E+00  9.636E+00  7.227E-02  1.955E+00
   1    3    6     3     2    1.7175E+00  2.4905E-01   1.4684E+00  0.000E+00  0.000E+00  0.000E+00  1.07264E+03  1.727E+00  8.909E+00  6.682E-02  1.864E+00
   1    3    7     3     3    1.4684E+00  1.9718E-01   1.2712E+00  0.000E+00  0.000E+00  0.000E+00  1.06987E+03  1.555E+00  8.218E+00  5.547E-02  1.777E+00
   1    4    8     3     4    1.2712E+00  2.2567E-01   1.0456E+00  0.000E+00  0.000E+00  0.000E+00  1.06682E+03  1.364E+00  7.455E+00  6.709E-02  1.682E+00
   1    5    8     3     5    1.0456E+00  1.5790E-01   8.8768E-01  0.000E+00  0.000E+00  0.000E+00  1.06362E+03  1.164E+00  6.655E+00  4.991E-02  1.582E+00
   1    6    8     3     6    8.8768E-01  5.5980E-02   8.3170E-01  0.000E+00  0.000E+00  0.000E+00  1.06158E+03  1.036E+00  6.145E+00  1.844E-02  1.518E+00
   1    5   10     4     1    1.0000E+01  9.0919E-02   9.9091E+00  0.000E+00  0.000E+00  0.000E+00  1.07836E+03  6.368E-01  1.000E+01  2.500E-02  1.212E+00
   1    5    9     4     2    9.9091E+00  1.8158E-01   9.7275E+00  0.000E+00  0.000E+00  0.000E+00  1.07154E+03  6.315E-01  1.000E+01  5.000E-02  1.211E+00
   1    6    8     4     3    9.7275E+00  1.2689E-01   9.6006E+00  0.000E+00  0.000E+00  0.000E+00  1.06381E+03  6.256E-01  1.000E+01  3.500E-02  1.209E+00
   1    6    8     5     1    1.0432E+01  2.2686E-01   1.0205E+01  0.000E+00  0.000E+00  0.000E+00  1.05868E+03  6.790E-01  1.542E+01  6.166E-02  1.226E+00
   1    7    7     5     2    1.0205E+01  2.7894E-01   9.9265E+00  0.000E+00  0.000E+00  0.000E+00  1.05417E+03  6.732E-01  1.519E+01  7.594E-02  1.224E+00
   1    8    7     5     3    9.9265E+00  1.9221E-01   9.7343E+00  0.000E+00  0.000E+00  0.000E+00  1.04992E+03  6.676E-01  1.497E+01  5.241E-02  1.223E+00
   1    8    6     5     4    9.7343E+00  1.3577E-01   9.5985E+00  0.000E+00  0.000E+00  0.000E+00  1.04691E+03  6.637E-01  1.482E+01  3.706E-02  1.221E+00
   1    9    6     6     1    5.1452E+01  2.9278E-01   5.1159E+01  0.000E+00  0.000E+00  0.000E+00  1.04461E+03  1.880E+00  1.200E+01  6.000E-02  1.627E+00
   1   10    7     6     2    5.1159E+01  2.9239E-01   5.0867E+01  0.000E+00  0.000E+00  0.000E+00  1.04005E+03  1.873E+00  1.200E+01  6.000E-02  1.624E+00
   1   11    7     6     3    5.0867E+01  2.9200E-01   5.0575E+01  0.000E+00  0.000E+00  0.000E+00  1.03550E+03  1.867E+00  1.200E+01  6.000E-02  1.622E+00
   1   12    7     6     4    5.0575E+01  2.9162E-01   5.0283E+01  0.000E+00  0.000E+00  0.000E+00  1.03095E+03  1.860E+00  1.200E+01  6.000E-02  1.620E+00
   1   13    7     6     5    5.0283E+01  1.2627E-02   5.0271E+01  0.000E+00  0.000E+00  0.000E+00  1.02777E+03  1.857E+00  1.200E+01  2.400E-02  1.754E-01
   1   14    9     7     1    1.5000E+02  1.3308E+00   1.4867E+02  0.000E+00  0.000E+00  0.000E+00  1.03987E+03  2.288E+00  5.529E+01  5.593E-01  7.931E-01
   1   13    8     7     2    1.4867E+02  1.7940E+00   1.4688E+02  0.000E+00  0.000E+00  0.000E+00  1.03478E+03  2.279E+00  5.526E+01  6.148E-01  9.727E-01
   1   13    7     7     3    1.4688E+02  1.3685E+00   1.4551E+02  0.000E+00  0.000E+00  0.000E+00  1.02969E+03  2.271E+00  5.522E+01  5.585E-01  8.168E-01
   1   13    6     8     1    1.9578E+02  9.1878E-01   1.9486E+02  0.000E+00  0.000E+00  0.000E+00  1.02498E+03  3.110E+00  4.509E+01  4.595E-01  6.665E-01
   1   13    5     8     2    1.9486E+02  1.4362E-01   1.9472E+02  0.000E+00  0.000E+00  0.000E+00  1.01873E+03  3.107E+00  4.505E+01  4.591E-01  1.043E-01
   1   13    4     8     3    1.9472E+02 -2.4950E+00   1.9721E+02  0.000E+00  0.000E+00  0.000E+00  1.01249E+03  3.114E+00  4.515E+01  4.601E+00 -1.808E-01
   1   13    3     8     4    1.9721E+02 -3.6164E+00   2.0083E+02  0.000E+00  0.000E+00  0.000E+00  1.00626E+03  3.132E+00  4.541E+01  4.628E+00 -2.605E-01
   1   13    2     8     5    2.0083E+02 -2.5915E+00   2.0342E+02  0.000E+00  0.000E+00  0.000E+00  1.00003E+03  3.150E+00  4.568E+01  4.655E+00 -1.856E-01
   1   13    1     8     6    2.0342E+02 -2.0171E+00   2.0544E+02  0.000E+00  0.000E+00  0.000E+00  9.95039E+02  3.164E+00  4.587E+01  2.805E+00 -2.397E-01





UNSATURATED ZONE PACKAGE VOLUMETRIC BUDGET FOR  TIME STEP    30 STRESS PERIOD   10
  ------------------------------------------------------------------------------



     CUMULATIVE VOLUMES      L**3       RATES FOR THIS TIME STEP      L**3/T
     ------------------                 ------------------------

           IN:                                      IN:
           ---                                      ---
        INFILTRATION =   495978420.6813          INFILTRATION =          12.0675

          OUT:                                     OUT:
          ----                                     ----
              UZF ET =   423882164.7522                UZF ET =          12.0675
        UZF RECHARGE =    52301856.4062          UZF RECHARGE =          26.0960

            IN - OUT =    19794399.5229              IN - OUT =         -26.0960

          STORAGE:                                 STORAGE:
          --------                                 --------
      STORAGE CHANGE =    19794393.4336        STORAGE CHANGE =         -26.0960

 PERCENT DISCREPANCY IS DIFFERENCE BETWEEN IN-OUT MINUS CHANGE IN STORAGE
 DIVIDED BY THE AVERAGE OF IN AND OUT TIMES 100

 PERCENT DISCREPANCY =           0.00     PERCENT DISCREPANCY =           0.00






1
  VOLUMETRIC BUDGET FOR AGRICULTURAL FIELDS AT  END OF TIME STEP   30, STRESS PERIOD  10
  ------------------------------------------------------------------------------

     CUMULATIVE VOLUMES      L**3       RATES FOR THIS TIME STEP      L**3/T
     ------------------                 ------------------------

           IN:                                      IN:
           ---                                      ---
           AG WELLS      =   475844416.0000             AG WELLS      =          11.2200
      DIVERSION SEGMENTS =           0.0000        DIVERSION SEGMENTS =           0.0000
           GW IRRIGATION =           0.0000             GW IRRIGATION =           0.0000
           SW IRRIGATION =           0.0000             SW IRRIGATION =           0.0000
        SYSTEM LOSSES GW =           0.0000          SYSTEM LOSSES GW =           0.0000
        SYSTEM LOSSES SW =           0.0000          SYSTEM LOSSES SW =           0.0000

                TOTAL IN =   475844416.0000                  TOTAL IN =          11.2200

          OUT:                                     OUT:
          ----                                     ----
           AG WELLS      =           0.0000             AG WELLS      =           0.0000
      DIVERSION SEGMENTS =           0.0000        DIVERSION SEGMENTS =           0.0000
           GW IRRIGATION =   475844416.0000             GW IRRIGATION =          11.2200
           SW IRRIGATION =           0.0000             SW IRRIGATION =           0.0000
        SYSTEM LOSSES GW =           0.0000          SYSTEM LOSSES GW =           0.0000
        SYSTEM LOSSES SW =           0.0000          SYSTEM LOSSES SW =           0.0000

               TOTAL OUT =   475844416.0000                 TOTAL OUT =          11.2200

                IN - OUT =           0.0000                  IN - OUT =           0.0000

     PERCENT DISCREPANCY =           0.00         PERCENT DISCREPANCY =           0.00



1
  VOLUMETRIC BUDGET FOR ENTIRE MODEL AT END OF TIME STEP   30, STRESS PERIOD  10
  ------------------------------------------------------------------------------

     CUMULATIVE VOLUMES      L**3       RATES FOR THIS TIME STEP      L**3/T
     ------------------                 ------------------------

           IN:                                      IN:
           ---                                      ---
             STORAGE     =   512242432.0000               STORAGE     =          16.8788
       CONSTANT HEAD     =           0.0000         CONSTANT HEAD     =           0.0000
     HEAD DEP BOUNDS     =     6781340.0000       HEAD DEP BOUNDS     =           0.2854
      STREAM LEAKAGE     =   302967584.0000        STREAM LEAKAGE     =          12.2846
        UZF RECHARGE     =    52301856.0000          UZF RECHARGE     =          26.0960
               GW ET     =           0.0000                 GW ET     =           0.0000
     SURFACE LEAKAGE     =           0.0000       SURFACE LEAKAGE     =           0.0000
           AG WELLS      =           0.0000             AG WELLS      =           0.0000

                TOTAL IN =   874293248.0000                  TOTAL IN =          55.5447

          OUT:                                     OUT:
          ----                                     ----
             STORAGE     =   136893360.0000               STORAGE     =          33.0508
       CONSTANT HEAD     =           0.0000         CONSTANT HEAD     =           0.0000
     HEAD DEP BOUNDS     =     7020254.5000       HEAD DEP BOUNDS     =           0.2948
      STREAM LEAKAGE     =   240805072.0000        STREAM LEAKAGE     =          10.7200
        UZF RECHARGE     =           0.0000          UZF RECHARGE     =           0.0000
               GW ET     =    13729072.0000                 GW ET     =           0.2599
     SURFACE LEAKAGE     =           0.0000       SURFACE LEAKAGE     =           0.0000
           AG WELLS      =   475844416.0000             AG WELLS      =          11.2200

               TOTAL OUT =   874292160.0000                 TOTAL OUT =          55.5455

                IN - OUT =        1088.0000                  IN - OUT =      -7.6294E-04

     PERCENT DISCREPANCY =           0.00         PERCENT DISCREPANCY =          -0.00






         TIME SUMMARY AT END OF TIME STEP   30 IN STRESS PERIOD   10
                    SECONDS     MINUTES      HOURS       DAYS        YEARS
                    -----------------------------------------------------------
   TIME STEP LENGTH  87667.      1461.1      24.352      1.0147     2.77799E-03
 STRESS PERIOD TIME 2.63000E+06  43833.      730.56      30.440     8.33397E-02
         TOTAL TIME 2.37564E+07 3.95940E+05  6599.0      274.96     0.75279    
1
1
                            STRESS PERIOD NO.   11, LENGTH =   2630000.    
                            -----------------------------------------------

                              NUMBER OF TIME STEPS =    30

                               MULTIPLIER FOR DELT =     1.000

                            INITIAL TIME STEP SIZE =   87666.66    

 REUSING NON-PARAMETER GHB CELLS FROM LAST STRESS PERIOD

      2 GHB CELLS

 REUSING STREAM SEGMENT DATA FROM LAST STRESS PERIOD



            AREAL INFILTRATION RATE
 READING ON UNIT   19 WITH FORMAT: (FREE)              

            1           2           3           4           5           6           7           8           9          10
 ........................................................................................................................
   1   1.0000E-10  2.0000E-10   0.000       0.000       0.000       0.000       0.000       0.000       0.000       0.000    
   2   2.0000E-10  1.0000E-10  2.0000E-10   0.000       0.000      8.0000E-10  8.0000E-10  5.0000E-10   0.000       0.000    
   3    0.000      5.0000E-10  1.0000E-10  1.0000E-10  8.0000E-10  8.0000E-10  5.0000E-10  5.0000E-10   0.000       0.000    
   4   8.0000E-10  5.0000E-10  1.0000E-10  1.0000E-10  1.0000E-10  1.0000E-10  1.0000E-10  1.0000E-10  2.0000E-10   0.000    
   5   8.0000E-10  5.0000E-10  1.0000E-10  1.0000E-10  1.0000E-10  1.0000E-10  1.0000E-10  1.0000E-10  1.0000E-10  1.0000E-10
   6   8.0000E-10  5.0000E-10  5.0000E-10  2.0000E-10  2.0000E-10  1.0000E-10  1.0000E-10  1.0000E-10  1.0000E-10  5.0000E-10
   7   8.0000E-10  5.0000E-10  5.0000E-10  2.0000E-10  2.0000E-10  1.0000E-10  1.0000E-10  2.0000E-10  2.0000E-10   0.000    
   8    0.000      5.0000E-10  5.0000E-10  2.0000E-10  2.0000E-10  1.0000E-10  1.0000E-10  2.0000E-10  5.0000E-10   0.000    
   9    0.000      5.0000E-10  5.0000E-10  2.0000E-10  2.0000E-10  1.0000E-10  1.0000E-10  2.0000E-10  5.0000E-10   0.000    
  10    0.000      5.0000E-10  5.0000E-10  2.0000E-10  2.0000E-10  1.0000E-10  1.0000E-10  2.0000E-10  5.0000E-10  8.0000E-10
  11    0.000      1.0000E-10  1.0000E-10  1.0000E-10  1.0000E-10  1.0000E-10  1.0000E-10  2.0000E-10  5.0000E-10   0.000    
  12   1.0000E-10  1.0000E-10  1.0000E-10  1.0000E-10  1.0000E-10  1.0000E-10  1.0000E-10  1.0000E-10  2.0000E-10   0.000    
  13   1.0000E-10  1.0000E-10  2.0000E-10  2.0000E-10  2.0000E-10  2.0000E-10  2.0000E-10  1.0000E-10  1.0000E-10   0.000    
  14    0.000      2.0000E-10  5.0000E-10  5.0000E-10  5.0000E-10  5.0000E-10  5.0000E-10  2.0000E-10  1.0000E-10   0.000    
  15    0.000       0.000      8.0000E-10  8.0000E-10  8.0000E-10  8.0000E-10   0.000       0.000       0.000       0.000    

                  ET RATE =  5.000000E-09

 USING ET EXTINCTION DEPTH FROM PREVIOUS STRESS PERIOD. CURRENT PERIOD IS:      11

 USING EXTINCTION WATER CONTENT FROM PREVIOUS STRESS PERIOD. CURRENT PERIOD IS:      11

 USING AIR ENTRY PRESSURE FROM PREVIOUS STRESS PERIOD. CURRENT PERIOD IS:      11

 USING ROOT PRESSURE HEAD FROM PREVIOUS STRESS PERIOD. CURRENT PERIOD IS:      11

 USING ROOT ACTIVITY FROM PREVIOUS STRESS PERIOD. CURRENT PERIOD IS:      11

 PROCESSING AG STRESS PERIOD DATA

 READING AG STRESS PERIOD DATA

 READING IRRIGATION WELL

 END PROCESSING AG STRESS PERIOD DATA OPTIONS
 
 SOLVING FOR HEAD 
                                                   Max.-Head-Change                         Max.-Flux-Residual
  Residual-Control   Outer-Iter.   Inner-Iter.     Column Row Layer    Maximum-Head-Change  Column Row Layer    Maximum-Flux-Residual          L2-NORM 
          0                 1           2             4    7     1       0.1603962690E+00       4    7    1         0.8432077353E+01      0.1649100096E+02
          0                 2           2             5    6     1       0.3121408731E-01       5    6    1         0.1696477154E+01      0.2773936247E+01
          0                 3           2             5    6     1       0.8370826897E-02       5    6    1         0.4544631488E+00      0.6848883898E+00
          0                 4           2             5    6     1       0.2245971468E-02       5    6    1         0.1219074279E+00      0.1810988841E+00
          0                 5           2             5    6     1       0.6029077521E-03       5    6    1         0.3271273681E-01      0.4876952959E-01
          0                 6           2             5    6     1       0.1619203248E-03       5    6    1         0.8782566607E-02      0.1314066222E-01
          0                 7           1             5    6     1       0.4350598262E-04       5    6    1         0.2358992677E-02      0.3542290079E-02

    ------------------------------------------------
       NWT REQUIRED            7 OUTER ITERATIONS 
       AND A TOTAL OF         13 INNER ITERATIONS.
    ------------------------------------------------

 NO OUTPUT CONTROL FOR STRESS PERIOD   11   TIME STEP    1
 
 SOLVING FOR HEAD 
                                                   Max.-Head-Change                         Max.-Flux-Residual
  Residual-Control   Outer-Iter.   Inner-Iter.     Column Row Layer    Maximum-Head-Change  Column Row Layer    Maximum-Flux-Residual          L2-NORM 
          0                 1           2             4    7     1       0.1583670331E+00       4    7    1         0.8329886427E+01      0.1611193791E+02
          0                 2           2             4    6     1       0.3793429759E-01       4    6    1         0.2079679862E+01      0.2960071303E+01
          0                 3           2             4    8     1      -0.2541332946E-02       4    8    1        -0.1427655791E+00      0.2324939183E+00
          0                 4           2             4    6     1      -0.2108551770E-03       4    6    1        -0.1180279919E-01      0.1793017616E-01
          0                 5           1             4    6     1       0.1434800883E-04       4    6    1         0.8274953836E-03      0.9881223827E-03

    ------------------------------------------------
       NWT REQUIRED            5 OUTER ITERATIONS 
       AND A TOTAL OF          9 INNER ITERATIONS.
    ------------------------------------------------

 NO OUTPUT CONTROL FOR STRESS PERIOD   11   TIME STEP    2
 
 SOLVING FOR HEAD 
                                                   Max.-Head-Change                         Max.-Flux-Residual
  Residual-Control   Outer-Iter.   Inner-Iter.     Column Row Layer    Maximum-Head-Change  Column Row Layer    Maximum-Flux-Residual          L2-NORM 
          0                 1           2             4    7     1       0.1580723375E+00       4    7    1         0.8324246217E+01      0.1577413159E+02
          0                 2           2             4    7     1      -0.1536826192E-01       4    7    1        -0.8320048169E+00      0.1576600866E+01
          0                 3           2             4    7     1       0.1045729849E-02       4    7    1         0.5819625009E-01      0.1102805233E+00
          0                 4           1             4    7     1      -0.4155846922E-04       4    7    1        -0.2377249576E-02      0.4504955839E-02

    ------------------------------------------------
       NWT REQUIRED            4 OUTER ITERATIONS 
       AND A TOTAL OF          7 INNER ITERATIONS.
    ------------------------------------------------

 NO OUTPUT CONTROL FOR STRESS PERIOD   11   TIME STEP    3
 
 SOLVING FOR HEAD 
                                                   Max.-Head-Change                         Max.-Flux-Residual
  Residual-Control   Outer-Iter.   Inner-Iter.     Column Row Layer    Maximum-Head-Change  Column Row Layer    Maximum-Flux-Residual          L2-NORM 
          0                 1           2             4    7     1       0.1559346154E+00       4    7    1         0.8213110982E+01      0.1551694766E+02
          0                 2           2             4    6     1      -0.1288439862E-01       4    6    1        -0.7077860050E+00      0.1355126874E+01
          0                 3           2             4    7     1      -0.1804435256E-02       4    7    1        -0.1029310630E+00      0.1380812178E+00
          0                 4           1             4    7     1      -0.5182665165E-03       4    7    1        -0.2892684402E-01      0.2917818923E-01
          0                 5           1             4    7     1      -0.1488527088E-03       4    7    1        -0.8331303111E-02      0.8331341613E-02
          0                 6           1             4    7     1      -0.4275137118E-04       4    7    1        -0.2392486399E-02      0.2392515273E-02

    ------------------------------------------------
       NWT REQUIRED            6 OUTER ITERATIONS 
       AND A TOTAL OF          9 INNER ITERATIONS.
    ------------------------------------------------

 NO OUTPUT CONTROL FOR STRESS PERIOD   11   TIME STEP    4
 
 SOLVING FOR HEAD 
                                                   Max.-Head-Change                         Max.-Flux-Residual
  Residual-Control   Outer-Iter.   Inner-Iter.     Column Row Layer    Maximum-Head-Change  Column Row Layer    Maximum-Flux-Residual          L2-NORM 
          0                 1           2             4    7     1       0.1535356088E+00       4    7    1         0.8087344495E+01      0.1526656728E+02
          0                 2           2             4    7     1       0.4102977068E-01       4    7    1         0.2261088116E+01      0.2605268544E+01
          0                 3           2             4    7     1       0.1096458551E-01       4    7    1         0.5950329698E+00      0.6020918668E+00
          0                 4           1             4    7     1       0.2930113966E-02       4    7    1         0.1595902824E+00      0.1596194394E+00
          0                 5           1             4    7     1       0.7830268919E-03       4    7    1         0.4262447685E-01      0.4262575108E-01
          0                 6           1             4    7     1       0.2092516527E-03       4    7    1         0.1139168065E-01      0.1139178367E-01
          0                 7           1             4    7     1       0.5591922155E-04       4    7    1         0.3044209130E-02      0.3044243910E-02

    ------------------------------------------------
       NWT REQUIRED            7 OUTER ITERATIONS 
       AND A TOTAL OF         10 INNER ITERATIONS.
    ------------------------------------------------

 NO OUTPUT CONTROL FOR STRESS PERIOD   11   TIME STEP    5
 
 SOLVING FOR HEAD 
                                                   Max.-Head-Change                         Max.-Flux-Residual
  Residual-Control   Outer-Iter.   Inner-Iter.     Column Row Layer    Maximum-Head-Change  Column Row Layer    Maximum-Flux-Residual          L2-NORM 
          0                 1           2             4    7     1       0.1469188721E+00       4    7    1         0.7786053719E+01      0.1383400097E+02
          0                 2           2             4    7     1      -0.1339639772E-01       4    7    1        -0.7353017551E+00      0.1205983816E+01
          0                 3           2             4    6     1      -0.1588694786E-02       4    6    1        -0.9051406817E-01      0.1220490209E+00
          0                 4           2             4    6     1      -0.4552135819E-03       4    6    1        -0.2546773693E-01      0.2569233532E-01
          0                 5           2             4    6     1      -0.1304310864E-03       4    6    1        -0.7314063345E-02      0.7314134457E-02
          0                 6           1             4    6     1      -0.3737117338E-04       4    6    1        -0.2095396796E-02      0.2095424575E-02

    ------------------------------------------------
       NWT REQUIRED            6 OUTER ITERATIONS 
       AND A TOTAL OF         11 INNER ITERATIONS.
    ------------------------------------------------

 NO OUTPUT CONTROL FOR STRESS PERIOD   11   TIME STEP    6
 
 SOLVING FOR HEAD 
                                                   Max.-Head-Change                         Max.-Flux-Residual
  Residual-Control   Outer-Iter.   Inner-Iter.     Column Row Layer    Maximum-Head-Change  Column Row Layer    Maximum-Flux-Residual          L2-NORM 
          0                 1           2             4    7     1       0.1424159039E+00       4    7    1         0.7624545951E+01      0.1228262441E+02
          0                 2           2             4    6     1       0.3435009666E-01       4    6    1         0.1873836111E+01      0.2207866733E+01
          0                 3           2             4    6     1       0.9238014570E-02       4    6    1         0.4997581309E+00      0.5463574849E+00
          0                 4           2             4    6     1       0.2485029558E-02       4    6    1         0.1346687700E+00      0.1468468731E+00
          0                 5           2             4    6     1       0.6686224629E-03       4    6    1         0.3621777309E-01      0.3964041544E-01
          0                 6           2             4    6     1       0.1799382397E-03       4    6    1         0.9745768328E-02      0.1070647701E-01
          0                 7           1             4    6     1       0.4843459830E-04       4    6    1         0.2622893799E-02      0.2891987788E-02

    ------------------------------------------------
       NWT REQUIRED            7 OUTER ITERATIONS 
       AND A TOTAL OF         13 INNER ITERATIONS.
    ------------------------------------------------

 NO OUTPUT CONTROL FOR STRESS PERIOD   11   TIME STEP    7
 
 SOLVING FOR HEAD 
                                                   Max.-Head-Change                         Max.-Flux-Residual
  Residual-Control   Outer-Iter.   Inner-Iter.     Column Row Layer    Maximum-Head-Change  Column Row Layer    Maximum-Flux-Residual          L2-NORM 
          0                 1           2             4    7     1       0.1391561017E+00       4    7    1         0.7447315237E+01      0.1132850016E+02
          0                 2           2             4    7     1      -0.1331941519E-01       4    7    1        -0.7443816429E+00      0.9469711582E+00
          0                 3           2             4    7     1       0.9063368502E-03       4    7    1         0.5213983757E-01      0.6750772424E-01
          0                 4           1             4    7     1      -0.3602026855E-04       4    7    1        -0.2136858836E-02      0.2935610154E-02

    ------------------------------------------------
       NWT REQUIRED            4 OUTER ITERATIONS 
       AND A TOTAL OF          7 INNER ITERATIONS.
    ------------------------------------------------

 NO OUTPUT CONTROL FOR STRESS PERIOD   11   TIME STEP    8
 
 SOLVING FOR HEAD 
                                                   Max.-Head-Change                         Max.-Flux-Residual
  Residual-Control   Outer-Iter.   Inner-Iter.     Column Row Layer    Maximum-Head-Change  Column Row Layer    Maximum-Flux-Residual          L2-NORM 
          0                 1           2             4    7     1       0.1353633633E+00       4    7    1         0.7241493188E+01      0.1057017938E+02
          0                 2           2             4    6     1      -0.1133565756E-01       4    6    1        -0.6297842766E+00      0.8072584012E+00
          0                 3           2             4    7     1      -0.1317333334E-02       4    7    1        -0.7484199166E-01      0.9219496465E-01
          0                 4           1             4    7     1      -0.3775667103E-03       4    7    1        -0.2112680260E-01      0.2124509382E-01
          0                 5           1             4    7     1      -0.1082138333E-03       4    7    1        -0.6066711290E-02      0.6066753661E-02
          0                 6           1             4    7     1      -0.3101427354E-04       4    7    1        -0.1738566737E-02      0.1738589142E-02

    ------------------------------------------------
       NWT REQUIRED            6 OUTER ITERATIONS 
       AND A TOTAL OF          9 INNER ITERATIONS.
    ------------------------------------------------

 NO OUTPUT CONTROL FOR STRESS PERIOD   11   TIME STEP    9
 
 SOLVING FOR HEAD 
                                                   Max.-Head-Change                         Max.-Flux-Residual
  Residual-Control   Outer-Iter.   Inner-Iter.     Column Row Layer    Maximum-Head-Change  Column Row Layer    Maximum-Flux-Residual          L2-NORM 
          0                 1           2             4    7     1       0.1247853964E+00       4    7    1         0.6664903387E+01      0.1008238874E+02
          0                 2           2             4    7     1      -0.1213225669E-01       4    7    1        -0.6661706919E+00      0.1007691311E+01
          0                 3           2             4    7     1       0.8255435667E-03       4    7    1         0.4659703364E-01      0.7048943245E-01
          0                 4           1             4    7     1      -0.3280859234E-04       4    7    1        -0.1903469007E-02      0.2879699258E-02

    ------------------------------------------------
       NWT REQUIRED            4 OUTER ITERATIONS 
       AND A TOTAL OF          7 INNER ITERATIONS.
    ------------------------------------------------

 NO OUTPUT CONTROL FOR STRESS PERIOD   11   TIME STEP   10
 
 SOLVING FOR HEAD 
                                                   Max.-Head-Change                         Max.-Flux-Residual
  Residual-Control   Outer-Iter.   Inner-Iter.     Column Row Layer    Maximum-Head-Change  Column Row Layer    Maximum-Flux-Residual          L2-NORM 
          0                 1           2             4    6     1       0.1102359338E+00       4    6    1         0.5951712541E+01      0.7767742337E+01
          0                 2           2             4    6     1      -0.1071766395E-01       4    6    1        -0.5948821718E+00      0.7764235528E+00
          0                 3           2             4    6     1       0.7292952263E-03       4    6    1         0.4161097178E-01      0.5431408713E-01
          0                 4           1             4    6     1      -0.2898399094E-04       4    6    1        -0.1699812762E-02      0.2219060010E-02

    ------------------------------------------------
       NWT REQUIRED            4 OUTER ITERATIONS 
       AND A TOTAL OF          7 INNER ITERATIONS.
    ------------------------------------------------

 NO OUTPUT CONTROL FOR STRESS PERIOD   11   TIME STEP   11
 
 SOLVING FOR HEAD 
                                                   Max.-Head-Change                         Max.-Flux-Residual
  Residual-Control   Outer-Iter.   Inner-Iter.     Column Row Layer    Maximum-Head-Change  Column Row Layer    Maximum-Flux-Residual          L2-NORM 
          0                 1           2             4    6     1       0.1061724611E+00       4    6    1         0.5727692734E+01      0.7581567886E+01
          0                 2           2             4    6     1      -0.1000958062E-01       4    6    1        -0.5549365477E+00      0.7446437727E+00
          0                 3           2             4    6     1       0.3766262437E-03       4    6    1         0.2126331518E-01      0.4072945403E-01
          0                 4           1             4    6     1      -0.1496792180E-04       4    6    1        -0.8685971563E-03      0.1664212242E-02

    ------------------------------------------------
       NWT REQUIRED            4 OUTER ITERATIONS 
       AND A TOTAL OF          7 INNER ITERATIONS.
    ------------------------------------------------

 NO OUTPUT CONTROL FOR STRESS PERIOD   11   TIME STEP   12
 
 SOLVING FOR HEAD 
                                                   Max.-Head-Change                         Max.-Flux-Residual
  Residual-Control   Outer-Iter.   Inner-Iter.     Column Row Layer    Maximum-Head-Change  Column Row Layer    Maximum-Flux-Residual          L2-NORM 
          0                 1           2             4    6     1       0.1023403944E+00       4    6    1         0.5516574705E+01      0.7408108099E+01
          0                 2           2             4    6     1       0.2406123336E-01       4    6    1         0.1319232108E+01      0.1408777364E+01
          0                 3           2             4    6     1       0.6412662681E-02       4    6    1         0.3493373805E+00      0.3510968233E+00
          0                 4           2             4    6     1       0.1709070597E-02       4    6    1         0.9324039781E-01      0.9324863431E-01
          0                 5           2             4    6     1       0.4554929973E-03       4    6    1         0.2484438481E-01      0.2484485747E-01
          0                 6           2             4    6     1       0.1213957464E-03       4    6    1         0.6621631636E-02      0.6621707827E-02
          0                 7           1             4    6     1       0.3235379644E-04       4    6    1         0.1764755374E-02      0.1764777442E-02

    ------------------------------------------------
       NWT REQUIRED            7 OUTER ITERATIONS 
       AND A TOTAL OF         13 INNER ITERATIONS.
    ------------------------------------------------

 NO OUTPUT CONTROL FOR STRESS PERIOD   11   TIME STEP   13
 
 SOLVING FOR HEAD 
                                                   Max.-Head-Change                         Max.-Flux-Residual
  Residual-Control   Outer-Iter.   Inner-Iter.     Column Row Layer    Maximum-Head-Change  Column Row Layer    Maximum-Flux-Residual          L2-NORM 
          0                 1           2             4    6     1       0.5024491310E-01       4    6    1         0.2671185478E+01      0.5629787043E+01
          0                 2           2             4    6     1      -0.4884912214E-02       4    6    1        -0.2669791623E+00      0.5627463901E+00
          0                 3           2             4    6     1       0.3323975782E-03       4    6    1         0.1867458425E-01      0.3936954936E-01
          0                 4           1             4    6     1      -0.1321012769E-04       4    6    1        -0.7628439544E-03      0.1608667386E-02

    ------------------------------------------------
       NWT REQUIRED            4 OUTER ITERATIONS 
       AND A TOTAL OF          7 INNER ITERATIONS.
    ------------------------------------------------

 NO OUTPUT CONTROL FOR STRESS PERIOD   11   TIME STEP   14
 
 SOLVING FOR HEAD 
                                                   Max.-Head-Change                         Max.-Flux-Residual
  Residual-Control   Outer-Iter.   Inner-Iter.     Column Row Layer    Maximum-Head-Change  Column Row Layer    Maximum-Flux-Residual          L2-NORM 
          0                 1           2             4    7     1       0.4414661745E-01       4    7    1         0.2345330950E+01      0.4931449101E+01
          0                 2           2             4    7     1      -0.4292003757E-02       4    7    1        -0.2344104070E+00      0.4929585745E+00
          0                 3           2             4    7     1       0.2920511318E-03       4    7    1         0.1639646750E-01      0.3448899438E-01
          0                 4           1             4    7     1      -0.1160656094E-04       4    7    1        -0.6697838533E-03      0.1409423164E-02

    ------------------------------------------------
       NWT REQUIRED            4 OUTER ITERATIONS 
       AND A TOTAL OF          7 INNER ITERATIONS.
    ------------------------------------------------

 NO OUTPUT CONTROL FOR STRESS PERIOD   11   TIME STEP   15
 
 SOLVING FOR HEAD 
                                                   Max.-Head-Change                         Max.-Flux-Residual
  Residual-Control   Outer-Iter.   Inner-Iter.     Column Row Layer    Maximum-Head-Change  Column Row Layer    Maximum-Flux-Residual          L2-NORM 
          0                 1           2             4    7     1       0.4320422034E-01       4    7    1         0.2293786034E+01      0.4853170461E+01
          0                 2           2             4    7     1      -0.4200379985E-02       4    7    1        -0.2292584545E+00      0.4851139587E+00
          0                 3           2             4    7     1       0.2858164428E-03       4    7    1         0.1603609332E-01      0.3394010949E-01
          0                 4           1             4    7     1      -0.1135877664E-04       4    7    1        -0.6550623150E-03      0.1386950875E-02

    ------------------------------------------------
       NWT REQUIRED            4 OUTER ITERATIONS 
       AND A TOTAL OF          7 INNER ITERATIONS.
    ------------------------------------------------

 NO OUTPUT CONTROL FOR STRESS PERIOD   11   TIME STEP   16
 
 SOLVING FOR HEAD 
                                                   Max.-Head-Change                         Max.-Flux-Residual
  Residual-Control   Outer-Iter.   Inner-Iter.     Column Row Layer    Maximum-Head-Change  Column Row Layer    Maximum-Flux-Residual          L2-NORM 
          0                 1           2             4    7     1       0.4230787306E-01       4    7    1         0.2244821520E+01      0.4778252739E+01
          0                 2           2             4    7     1      -0.4113233485E-02       4    7    1        -0.2243644198E+00      0.4776452507E+00
          0                 3           2             4    7     1       0.2798864217E-03       4    7    1         0.1569376053E-01      0.3341761776E-01
          0                 4           1             4    7     1      -0.1112310123E-04       4    7    1        -0.6410777914E-03      0.1365613619E-02

    ------------------------------------------------
       NWT REQUIRED            4 OUTER ITERATIONS 
       AND A TOTAL OF          7 INNER ITERATIONS.
    ------------------------------------------------

 NO OUTPUT CONTROL FOR STRESS PERIOD   11   TIME STEP   17
 
 SOLVING FOR HEAD 
                                                   Max.-Head-Change                         Max.-Flux-Residual
  Residual-Control   Outer-Iter.   Inner-Iter.     Column Row Layer    Maximum-Head-Change  Column Row Layer    Maximum-Flux-Residual          L2-NORM 
          0                 1           2             4    7     1       0.4145415798E-01       4    7    1         0.2198244613E+01      0.4706405407E+01
          0                 2           2             4    7     1      -0.4030231919E-02       4    7    1        -0.2197090327E+00      0.4704633949E+00
          0                 3           2             4    7     1       0.2742384542E-03       4    7    1         0.1536812120E-01      0.3291515759E-01
          0                 4           1             4    7     1      -0.1089863522E-04       4    7    1        -0.6277751995E-03      0.1345060413E-02

    ------------------------------------------------
       NWT REQUIRED            4 OUTER ITERATIONS 
       AND A TOTAL OF          7 INNER ITERATIONS.
    ------------------------------------------------

 NO OUTPUT CONTROL FOR STRESS PERIOD   11   TIME STEP   18
 
 SOLVING FOR HEAD 
                                                   Max.-Head-Change                         Max.-Flux-Residual
  Residual-Control   Outer-Iter.   Inner-Iter.     Column Row Layer    Maximum-Head-Change  Column Row Layer    Maximum-Flux-Residual          L2-NORM 
          0                 1           2             4    7     1       0.4064007314E-01       4    7    1         0.2153885442E+01      0.4637340420E+01
          0                 2           2             4    7     1      -0.3951083437E-02       4    7    1        -0.2152753142E+00      0.4635596925E+00
          0                 3           2             4    7     1       0.2688526804E-03       4    7    1         0.1505798761E-01      0.3243210983E-01
          0                 4           1             4    7     1      -0.1068458999E-04       4    7    1        -0.6151060695E-03      0.1325280047E-02

    ------------------------------------------------
       NWT REQUIRED            4 OUTER ITERATIONS 
       AND A TOTAL OF          7 INNER ITERATIONS.
    ------------------------------------------------

 NO OUTPUT CONTROL FOR STRESS PERIOD   11   TIME STEP   19
 
 SOLVING FOR HEAD 
                                                   Max.-Head-Change                         Max.-Flux-Residual
  Residual-Control   Outer-Iter.   Inner-Iter.     Column Row Layer    Maximum-Head-Change  Column Row Layer    Maximum-Flux-Residual          L2-NORM 
          0                 1           2             4    7     1       0.3986300054E-01       4    7    1         0.2111595690E+01      0.4570847546E+01
          0                 2           2             4    7     1      -0.3875533503E-02       4    7    1        -0.2110484395E+00      0.4569130059E+00
          0                 3           2             4    7     1       0.2637117797E-03       4    7    1         0.1476232276E-01      0.3196716213E-01
          0                 4           1             4    7     1      -0.1048027776E-04       4    7    1        -0.6030280288E-03      0.1306332992E-02

    ------------------------------------------------
       NWT REQUIRED            4 OUTER ITERATIONS 
       AND A TOTAL OF          7 INNER ITERATIONS.
    ------------------------------------------------

 NO OUTPUT CONTROL FOR STRESS PERIOD   11   TIME STEP   20
 
 SOLVING FOR HEAD 
                                                   Max.-Head-Change                         Max.-Flux-Residual
  Residual-Control   Outer-Iter.   Inner-Iter.     Column Row Layer    Maximum-Head-Change  Column Row Layer    Maximum-Flux-Residual          L2-NORM 
          0                 1           2             4    7     1       0.3912000623E-01       4    7    1         0.2071210306E+01      0.4506712511E+01
          0                 2           2             4    7     1      -0.3803296859E-02       4    7    1        -0.2070119113E+00      0.4505020237E+00
          0                 3           2             4    7     1       0.2587963405E-03       4    7    1         0.1447997267E-01      0.3151860891E-01
          0                 4           1             4    7     1      -0.1028492521E-04       4    7    1        -0.5914938993E-03      0.1288265987E-02

    ------------------------------------------------
       NWT REQUIRED            4 OUTER ITERATIONS 
       AND A TOTAL OF          7 INNER ITERATIONS.
    ------------------------------------------------

 NO OUTPUT CONTROL FOR STRESS PERIOD   11   TIME STEP   21
 
 SOLVING FOR HEAD 
                                                   Max.-Head-Change                         Max.-Flux-Residual
  Residual-Control   Outer-Iter.   Inner-Iter.     Column Row Layer    Maximum-Head-Change  Column Row Layer    Maximum-Flux-Residual          L2-NORM 
          0                 1           2             4    7     1       0.3840905654E-01       4    7    1         0.2032613811E+01      0.4444745592E+01
          0                 2           2             4    7     1      -0.3734175780E-02       4    7    1        -0.2031541872E+00      0.4443077380E+00
          0                 3           2             4    7     1       0.2540929075E-03       4    7    1         0.1421012990E-01      0.3108528370E-01
          0                 4           1             4    7     1      -0.1009799898E-04       4    7    1        -0.5804707155E-03      0.1270298365E-02

    ------------------------------------------------
       NWT REQUIRED            4 OUTER ITERATIONS 
       AND A TOTAL OF          7 INNER ITERATIONS.
    ------------------------------------------------

 NO OUTPUT CONTROL FOR STRESS PERIOD   11   TIME STEP   22
 
 SOLVING FOR HEAD 
                                                   Max.-Head-Change                         Max.-Flux-Residual
  Residual-Control   Outer-Iter.   Inner-Iter.     Column Row Layer    Maximum-Head-Change  Column Row Layer    Maximum-Flux-Residual          L2-NORM 
          0                 1           2             4    7     1       0.3772775726E-01       4    7    1         0.1995671448E+01      0.4384797316E+01
          0                 2           2             4    7     1      -0.3667937487E-02       4    7    1        -0.1994617979E+00      0.4383152356E+00
          0                 3           2             4    7     1       0.2495856413E-03       4    7    1         0.1395185231E-01      0.3066603825E-01
          0                 4           1             4    7     1      -0.9918869296E-05       4    7    1        -0.5699199958E-03      0.1253142834E-02

    ------------------------------------------------
       NWT REQUIRED            4 OUTER ITERATIONS 
       AND A TOTAL OF          7 INNER ITERATIONS.
    ------------------------------------------------

 NO OUTPUT CONTROL FOR STRESS PERIOD   11   TIME STEP   23
 
 SOLVING FOR HEAD 
                                                   Max.-Head-Change                         Max.-Flux-Residual
  Residual-Control   Outer-Iter.   Inner-Iter.     Column Row Layer    Maximum-Head-Change  Column Row Layer    Maximum-Flux-Residual          L2-NORM 
          0                 1           2             4    7     1       0.3707417020E-01       4    7    1         0.1960273739E+01      0.4326708694E+01
          0                 2           2             4    7     1      -0.3604393535E-02       4    7    1        -0.1959238007E+00      0.4325085907E+00
          0                 3           2             4    7     1       0.2452617185E-03       4    7    1         0.1370437444E-01      0.3025979524E-01
          0                 4           1             4    7     1      -0.9747026040E-05       4    7    1        -0.5598104638E-03      0.1236563408E-02

    ------------------------------------------------
       NWT REQUIRED            4 OUTER ITERATIONS 
       AND A TOTAL OF          7 INNER ITERATIONS.
    ------------------------------------------------

 NO OUTPUT CONTROL FOR STRESS PERIOD   11   TIME STEP   24
 
 SOLVING FOR HEAD 
                                                   Max.-Head-Change                         Max.-Flux-Residual
  Residual-Control   Outer-Iter.   Inner-Iter.     Column Row Layer    Maximum-Head-Change  Column Row Layer    Maximum-Flux-Residual          L2-NORM 
          0                 1           2             4    7     1       0.3644638638E-01       4    7    1         0.1926312863E+01      0.4270360439E+01
          0                 2           2             4    7     1      -0.3543358322E-02       4    7    1        -0.1925294184E+00      0.4268758881E+00
          0                 3           2             4    7     1       0.2411085087E-03       4    7    1         0.1346694240E-01      0.2986567297E-01
          0                 4           1             4    7     1      -0.9581968175E-05       4    7    1        -0.5501113203E-03      0.1220434945E-02

    ------------------------------------------------
       NWT REQUIRED            4 OUTER ITERATIONS 
       AND A TOTAL OF          7 INNER ITERATIONS.
    ------------------------------------------------

 NO OUTPUT CONTROL FOR STRESS PERIOD   11   TIME STEP   25
 
 SOLVING FOR HEAD 
                                                   Max.-Head-Change                         Max.-Flux-Residual
  Residual-Control   Outer-Iter.   Inner-Iter.     Column Row Layer    Maximum-Head-Change  Column Row Layer    Maximum-Flux-Residual          L2-NORM 
          0                 1           2             4    7     1       0.3584278038E-01       4    7    1         0.1893697173E+01      0.4215634099E+01
          0                 2           2             4    7     1      -0.3484673815E-02       4    7    1        -0.1892694909E+00      0.4214048519E+00
          0                 3           2             4    7     1       0.2371152586E-03       4    7    1         0.1323891546E-01      0.2948292358E-01
          0                 4           1             4    7     1      -0.9423267426E-05       4    7    1        -0.5407963977E-03      0.1204813630E-02

    ------------------------------------------------
       NWT REQUIRED            4 OUTER ITERATIONS 
       AND A TOTAL OF          7 INNER ITERATIONS.
    ------------------------------------------------

 NO OUTPUT CONTROL FOR STRESS PERIOD   11   TIME STEP   26
 
 SOLVING FOR HEAD 
                                                   Max.-Head-Change                         Max.-Flux-Residual
  Residual-Control   Outer-Iter.   Inner-Iter.     Column Row Layer    Maximum-Head-Change  Column Row Layer    Maximum-Flux-Residual          L2-NORM 
          0                 1           2             4    7     1       0.3526172319E-01       4    7    1         0.1862335063E+01      0.4162415372E+01
          0                 2           2             4    7     1      -0.3428181628E-02       4    7    1        -0.1861348616E+00      0.4160854586E+00
          0                 3           2             4    7     1       0.2332711899E-03       4    7    1         0.1301965309E-01      0.2911069825E-01
          0                 4           1             4    7     1      -0.9270495403E-05       4    7    1        -0.5318395081E-03      0.1189619673E-02

    ------------------------------------------------
       NWT REQUIRED            4 OUTER ITERATIONS 
       AND A TOTAL OF          7 INNER ITERATIONS.
    ------------------------------------------------

 NO OUTPUT CONTROL FOR STRESS PERIOD   11   TIME STEP   27
 
 SOLVING FOR HEAD 
                                                   Max.-Head-Change                         Max.-Flux-Residual
  Residual-Control   Outer-Iter.   Inner-Iter.     Column Row Layer    Maximum-Head-Change  Column Row Layer    Maximum-Flux-Residual          L2-NORM 
          0                 1           2             4    7     1       0.3470171691E-01       4    7    1         0.1832142071E+01      0.4110614460E+01
          0                 2           2             4    7     1      -0.3373736129E-02       4    7    1        -0.1831170884E+00      0.4109073176E+00
          0                 3           2             4    7     1       0.2295663931E-03       4    7    1         0.1280856480E-01      0.2874844812E-01
          0                 4           1             4    7     1      -0.9123258715E-05       4    7    1        -0.5232165474E-03      0.1174798772E-02

    ------------------------------------------------
       NWT REQUIRED            4 OUTER ITERATIONS 
       AND A TOTAL OF          7 INNER ITERATIONS.
    ------------------------------------------------

 NO OUTPUT CONTROL FOR STRESS PERIOD   11   TIME STEP   28
 
 SOLVING FOR HEAD 
                                                   Max.-Head-Change                         Max.-Flux-Residual
  Residual-Control   Outer-Iter.   Inner-Iter.     Column Row Layer    Maximum-Head-Change  Column Row Layer    Maximum-Flux-Residual          L2-NORM 
          0                 1           2             4    7     1       0.3416151257E-01       4    7    1         0.1803047866E+01      0.4060145742E+01
          0                 2           2             4    7     1      -0.3321215884E-02       4    7    1        -0.1802091413E+00      0.4058615577E+00
          0                 3           2             4    7     1       0.2259926043E-03       4    7    1         0.1260515880E-01      0.2839546026E-01
          0                 4           1             4    7     1      -0.8981228558E-05       4    7    1        -0.5149074032E-03      0.1160369711E-02

    ------------------------------------------------
       NWT REQUIRED            4 OUTER ITERATIONS 
       AND A TOTAL OF          7 INNER ITERATIONS.
    ------------------------------------------------

 NO OUTPUT CONTROL FOR STRESS PERIOD   11   TIME STEP   29
 
 SOLVING FOR HEAD 
                                                   Max.-Head-Change                         Max.-Flux-Residual
  Residual-Control   Outer-Iter.   Inner-Iter.     Column Row Layer    Maximum-Head-Change  Column Row Layer    Maximum-Flux-Residual          L2-NORM 
          0                 1           2             4    7     1       0.3363983819E-01       4    7    1         0.1774980358E+01      0.4010935387E+01
          0                 2           2             4    7     1      -0.3270496026E-02       4    7    1        -0.1774038150E+00      0.4008911018E+00
          0                 3           2             4    7     1       0.2225413271E-03       4    7    1         0.1240893109E-01      0.2804771292E-01
          0                 4           1             4    7     1      -0.8844067952E-05       4    7    1        -0.5068915241E-03      0.1146170725E-02

    ------------------------------------------------
       NWT REQUIRED            4 OUTER ITERATIONS 
       AND A TOTAL OF          7 INNER ITERATIONS.
    ------------------------------------------------

 NO OUTPUT CONTROL FOR STRESS PERIOD   11   TIME STEP   30



 STREAM LISTING     PERIOD     11   STEP       30

 LAYER ROW COL. STREAM  RCH.  FLOW INTO     FLOW TO   FLOW OUT OF   OVRLND.     DIRECT     STREAM       STREAM     STREAM     STREAM   STREAMBED  STREAMBED
                SEG.NO.  NO.  STRM. RCH.    AQUIFER    STRM. RCH.    RUNOFF     PRECIP       ET          HEAD       DEPTH      WIDTH   CONDCTNC.   GRADIENT

   1    1    1     1     1    3.5000E+01  2.8629E-01   3.4713E+01  0.000E+00  0.000E+00  0.000E+00  1.09434E+03  1.292E+00  1.482E+01  6.670E-02  1.431E+00
   1    2    2     1     2    3.4713E+01  4.4324E-01   3.4270E+01  0.000E+00  0.000E+00  0.000E+00  1.08935E+03  1.289E+00  1.476E+01  1.033E-01  1.430E+00
   1    3    3     1     3    3.4270E+01  3.7790E-01   3.3892E+01  0.000E+00  0.000E+00  0.000E+00  1.08370E+03  1.286E+00  1.470E+01  8.817E-02  1.429E+00
   1    3    4     1     4    3.3892E+01  3.4789E-01   3.3544E+01  0.000E+00  0.000E+00  0.000E+00  1.07869E+03  1.283E+00  1.464E+01  8.123E-02  1.428E+00
   1    4    5     2     1    3.1544E+01  3.4194E-01   3.1202E+01  0.000E+00  0.000E+00  0.000E+00  1.07332E+03  1.384E+00  1.200E+01  7.800E-02  1.461E+00
   1    5    6     2     2    3.1202E+01  2.6255E-01   3.0940E+01  0.000E+00  0.000E+00  0.000E+00  1.06789E+03  1.376E+00  1.200E+01  6.000E-02  1.459E+00
   1    6    6     2     3    3.0940E+01  2.6213E-01   3.0678E+01  0.000E+00  0.000E+00  0.000E+00  1.06316E+03  1.369E+00  1.200E+01  6.000E-02  1.456E+00
   1    7    6     2     4    3.0678E+01  2.6171E-01   3.0416E+01  0.000E+00  0.000E+00  0.000E+00  1.05844E+03  1.362E+00  1.200E+01  6.000E-02  1.454E+00
   1    8    6     2     5    3.0416E+01  2.6129E-01   3.0155E+01  0.000E+00  0.000E+00  0.000E+00  1.05371E+03  1.355E+00  1.200E+01  6.000E-02  1.452E+00
   1    3    5     3     1    2.0000E+00  2.8252E-01   1.7175E+00  0.000E+00  0.000E+00  0.000E+00  1.07555E+03  1.909E+00  9.636E+00  7.227E-02  1.955E+00
   1    3    6     3     2    1.7175E+00  2.4905E-01   1.4684E+00  0.000E+00  0.000E+00  0.000E+00  1.07264E+03  1.727E+00  8.909E+00  6.682E-02  1.864E+00
   1    3    7     3     3    1.4684E+00  1.9718E-01   1.2712E+00  0.000E+00  0.000E+00  0.000E+00  1.06987E+03  1.555E+00  8.218E+00  5.547E-02  1.777E+00
   1    4    8     3     4    1.2712E+00  2.2567E-01   1.0456E+00  0.000E+00  0.000E+00  0.000E+00  1.06682E+03  1.364E+00  7.455E+00  6.709E-02  1.682E+00
   1    5    8     3     5    1.0456E+00  1.5790E-01   8.8768E-01  0.000E+00  0.000E+00  0.000E+00  1.06362E+03  1.164E+00  6.655E+00  4.991E-02  1.582E+00
   1    6    8     3     6    8.8768E-01  5.5980E-02   8.3170E-01  0.000E+00  0.000E+00  0.000E+00  1.06158E+03  1.036E+00  6.145E+00  1.844E-02  1.518E+00
   1    5   10     4     1    1.0000E+01  9.0919E-02   9.9091E+00  0.000E+00  0.000E+00  0.000E+00  1.07836E+03  6.368E-01  1.000E+01  2.500E-02  1.212E+00
   1    5    9     4     2    9.9091E+00  1.8158E-01   9.7275E+00  0.000E+00  0.000E+00  0.000E+00  1.07154E+03  6.315E-01  1.000E+01  5.000E-02  1.211E+00
   1    6    8     4     3    9.7275E+00  1.2689E-01   9.6006E+00  0.000E+00  0.000E+00  0.000E+00  1.06381E+03  6.256E-01  1.000E+01  3.500E-02  1.209E+00
   1    6    8     5     1    1.0432E+01  2.2686E-01   1.0205E+01  0.000E+00  0.000E+00  0.000E+00  1.05868E+03  6.790E-01  1.542E+01  6.166E-02  1.226E+00
   1    7    7     5     2    1.0205E+01  2.7894E-01   9.9265E+00  0.000E+00  0.000E+00  0.000E+00  1.05417E+03  6.732E-01  1.519E+01  7.594E-02  1.224E+00
   1    8    7     5     3    9.9265E+00  1.9221E-01   9.7343E+00  0.000E+00  0.000E+00  0.000E+00  1.04992E+03  6.676E-01  1.497E+01  5.241E-02  1.223E+00
   1    8    6     5     4    9.7343E+00  1.3577E-01   9.5985E+00  0.000E+00  0.000E+00  0.000E+00  1.04691E+03  6.637E-01  1.482E+01  3.706E-02  1.221E+00
   1    9    6     6     1    3.9753E+01  2.7657E-01   3.9477E+01  0.000E+00  0.000E+00  0.000E+00  1.04434E+03  1.609E+00  1.200E+01  6.000E-02  1.536E+00
   1   10    7     6     2    3.9477E+01  2.7616E-01   3.9201E+01  0.000E+00  0.000E+00  0.000E+00  1.03978E+03  1.603E+00  1.200E+01  6.000E-02  1.534E+00
   1   11    7     6     3    3.9201E+01  2.7576E-01   3.8925E+01  0.000E+00  0.000E+00  0.000E+00  1.03523E+03  1.596E+00  1.200E+01  6.000E-02  1.532E+00
   1   12    7     6     4    3.8925E+01  2.7535E-01   3.8649E+01  0.000E+00  0.000E+00  0.000E+00  1.03068E+03  1.589E+00  1.200E+01  6.000E-02  1.530E+00
   1   13    7     6     5    3.8649E+01  6.5240E-03   3.8643E+01  0.000E+00  0.000E+00  0.000E+00  1.02749E+03  1.586E+00  1.200E+01  2.400E-02  9.061E-02
   1   14    9     7     1    1.5000E+02  1.3303E+00   1.4867E+02  0.000E+00  0.000E+00  0.000E+00  1.03987E+03  2.288E+00  5.529E+01  5.593E-01  7.928E-01
   1   13    8     7     2    1.4867E+02  1.7945E+00   1.4688E+02  0.000E+00  0.000E+00  0.000E+00  1.03478E+03  2.279E+00  5.526E+01  6.148E-01  9.730E-01
   1   13    7     7     3    1.4688E+02  1.3779E+00   1.4550E+02  0.000E+00  0.000E+00  0.000E+00  1.02969E+03  2.271E+00  5.522E+01  5.585E-01  8.224E-01
   1   13    6     8     1    1.8414E+02  8.8645E-01   1.8325E+02  0.000E+00  0.000E+00  0.000E+00  1.02491E+03  3.039E+00  4.407E+01  4.491E-01  6.580E-01
   1   13    5     8     2    1.8325E+02  1.2925E-01   1.8312E+02  0.000E+00  0.000E+00  0.000E+00  1.01866E+03  3.036E+00  4.402E+01  4.486E-01  9.603E-02
   1   13    4     8     3    1.8312E+02 -2.6025E+00   1.8573E+02  0.000E+00  0.000E+00  0.000E+00  1.01242E+03  3.044E+00  4.413E+01  4.497E+00 -1.929E-01
   1   13    3     8     4    1.8573E+02 -3.7448E+00   1.8947E+02  0.000E+00  0.000E+00  0.000E+00  1.00619E+03  3.063E+00  4.442E+01  4.526E+00 -2.758E-01
   1   13    2     8     5    1.8947E+02 -2.6143E+00   1.9209E+02  0.000E+00  0.000E+00  0.000E+00  9.99958E+02  3.083E+00  4.470E+01  4.555E+00 -1.913E-01
   1   13    1     8     6    1.9209E+02 -2.0206E+00   1.9411E+02  0.000E+00  0.000E+00  0.000E+00  9.94972E+02  3.097E+00  4.490E+01  2.745E+00 -2.453E-01





UNSATURATED ZONE PACKAGE VOLUMETRIC BUDGET FOR  TIME STEP    30 STRESS PERIOD   11
  ------------------------------------------------------------------------------



     CUMULATIVE VOLUMES      L**3       RATES FOR THIS TIME STEP      L**3/T
     ------------------                 ------------------------

           IN:                                      IN:
           ---                                      ---
        INFILTRATION =   498207345.5541          INFILTRATION =           0.8475

          OUT:                                     OUT:
          ----                                     ----
              UZF ET =   426111089.6414                UZF ET =           0.8475
        UZF RECHARGE =    72021935.7161          UZF RECHARGE =           0.0004

            IN - OUT =       74320.1966              IN - OUT =      -3.8835E-04

          STORAGE:                                 STORAGE:
          --------                                 --------
      STORAGE CHANGE =       74314.0976        STORAGE CHANGE =      -3.8835E-04

 PERCENT DISCREPANCY IS DIFFERENCE BETWEEN IN-OUT MINUS CHANGE IN STORAGE
 DIVIDED BY THE AVERAGE OF IN AND OUT TIMES 100

 PERCENT DISCREPANCY =           0.00     PERCENT DISCREPANCY =           0.00






1
  VOLUMETRIC BUDGET FOR AGRICULTURAL FIELDS AT  END OF TIME STEP   30, STRESS PERIOD  11
  ------------------------------------------------------------------------------

     CUMULATIVE VOLUMES      L**3       RATES FOR THIS TIME STEP      L**3/T
     ------------------                 ------------------------

           IN:                                      IN:
           ---                                      ---
           AG WELLS      =   475844416.0000             AG WELLS      =           0.0000
      DIVERSION SEGMENTS =           0.0000        DIVERSION SEGMENTS =           0.0000
           GW IRRIGATION =           0.0000             GW IRRIGATION =           0.0000
           SW IRRIGATION =           0.0000             SW IRRIGATION =           0.0000
        SYSTEM LOSSES GW =           0.0000          SYSTEM LOSSES GW =           0.0000
        SYSTEM LOSSES SW =           0.0000          SYSTEM LOSSES SW =           0.0000

                TOTAL IN =   475844416.0000                  TOTAL IN =           0.0000

          OUT:                                     OUT:
          ----                                     ----
           AG WELLS      =           0.0000             AG WELLS      =           0.0000
      DIVERSION SEGMENTS =           0.0000        DIVERSION SEGMENTS =           0.0000
           GW IRRIGATION =   475844416.0000             GW IRRIGATION =           0.0000
           SW IRRIGATION =           0.0000             SW IRRIGATION =           0.0000
        SYSTEM LOSSES GW =           0.0000          SYSTEM LOSSES GW =           0.0000
        SYSTEM LOSSES SW =           0.0000          SYSTEM LOSSES SW =           0.0000

               TOTAL OUT =   475844416.0000                 TOTAL OUT =           0.0000

                IN - OUT =           0.0000                  IN - OUT =           0.0000

     PERCENT DISCREPANCY =           0.00         PERCENT DISCREPANCY =           0.00



1
  VOLUMETRIC BUDGET FOR ENTIRE MODEL AT END OF TIME STEP   30, STRESS PERIOD  11
  ------------------------------------------------------------------------------

     CUMULATIVE VOLUMES      L**3       RATES FOR THIS TIME STEP      L**3/T
     ------------------                 ------------------------

           IN:                                      IN:
           ---                                      ---
             STORAGE     =   548520256.0000               STORAGE     =          11.3206
       CONSTANT HEAD     =           0.0000         CONSTANT HEAD     =           0.0000
     HEAD DEP BOUNDS     =     7531935.5000       HEAD DEP BOUNDS     =           0.2854
      STREAM LEAKAGE     =   334155840.0000        STREAM LEAKAGE     =          11.8752
        UZF RECHARGE     =    72021936.0000          UZF RECHARGE     =       3.8835E-04
               GW ET     =           0.0000                 GW ET     =           0.0000
     SURFACE LEAKAGE     =           0.0000       SURFACE LEAKAGE     =           0.0000
           AG WELLS      =           0.0000             AG WELLS      =           0.0000

                TOTAL IN =   962229952.0000                  TOTAL IN =          23.4816

          OUT:                                     OUT:
          ----                                     ----
             STORAGE     =   194639536.0000               STORAGE     =          12.2026
       CONSTANT HEAD     =           0.0000         CONSTANT HEAD     =           0.0000
     HEAD DEP BOUNDS     =     7792454.0000       HEAD DEP BOUNDS     =           0.2929
      STREAM LEAKAGE     =   270201632.0000        STREAM LEAKAGE     =          10.9823
        UZF RECHARGE     =           0.0000          UZF RECHARGE     =           0.0000
               GW ET     =    13750646.0000                 GW ET     =       3.7548E-03
     SURFACE LEAKAGE     =           0.0000       SURFACE LEAKAGE     =           0.0000
           AG WELLS      =   475844416.0000             AG WELLS      =           0.0000

               TOTAL OUT =   962228672.0000                 TOTAL OUT =          23.4816

                IN - OUT =        1280.0000                  IN - OUT =       5.7220E-06

     PERCENT DISCREPANCY =           0.00         PERCENT DISCREPANCY =           0.00






         TIME SUMMARY AT END OF TIME STEP   30 IN STRESS PERIOD   11
                    SECONDS     MINUTES      HOURS       DAYS        YEARS
                    -----------------------------------------------------------
   TIME STEP LENGTH  87667.      1461.1      24.352      1.0147     2.77799E-03
 STRESS PERIOD TIME 2.63000E+06  43833.      730.56      30.440     8.33397E-02
         TOTAL TIME 2.63864E+07 4.39773E+05  7329.5      305.40     0.83613    
1
1
                            STRESS PERIOD NO.   12, LENGTH =   2630000.    
                            -----------------------------------------------

                              NUMBER OF TIME STEPS =    30

                               MULTIPLIER FOR DELT =     1.000

                            INITIAL TIME STEP SIZE =   87666.66    

 REUSING NON-PARAMETER GHB CELLS FROM LAST STRESS PERIOD

      2 GHB CELLS

 REUSING STREAM SEGMENT DATA FROM LAST STRESS PERIOD



            AREAL INFILTRATION RATE
 READING ON UNIT   19 WITH FORMAT: (FREE)              

            1           2           3           4           5           6           7           8           9          10
 ........................................................................................................................
   1   1.0000E-10  2.0000E-10   0.000       0.000       0.000       0.000       0.000       0.000       0.000       0.000    
   2   2.0000E-10  1.0000E-10  2.0000E-10   0.000       0.000      8.0000E-10  8.0000E-10  5.0000E-10   0.000       0.000    
   3    0.000      5.0000E-10  1.0000E-10  1.0000E-10  8.0000E-10  8.0000E-10  5.0000E-10  5.0000E-10   0.000       0.000    
   4   8.0000E-10  5.0000E-10  1.0000E-10  1.0000E-10  1.0000E-10  1.0000E-10  1.0000E-10  1.0000E-10  2.0000E-10   0.000    
   5   8.0000E-10  5.0000E-10  1.0000E-10  1.0000E-10  1.0000E-10  1.0000E-10  1.0000E-10  1.0000E-10  1.0000E-10  1.0000E-10
   6   8.0000E-10  5.0000E-10  5.0000E-10  2.0000E-10  2.0000E-10  1.0000E-10  1.0000E-10  1.0000E-10  1.0000E-10  5.0000E-10
   7   8.0000E-10  5.0000E-10  5.0000E-10  2.0000E-10  2.0000E-10  1.0000E-10  1.0000E-10  2.0000E-10  2.0000E-10   0.000    
   8    0.000      5.0000E-10  5.0000E-10  2.0000E-10  2.0000E-10  1.0000E-10  1.0000E-10  2.0000E-10  5.0000E-10   0.000    
   9    0.000      5.0000E-10  5.0000E-10  2.0000E-10  2.0000E-10  1.0000E-10  1.0000E-10  2.0000E-10  5.0000E-10   0.000    
  10    0.000      5.0000E-10  5.0000E-10  2.0000E-10  2.0000E-10  1.0000E-10  1.0000E-10  2.0000E-10  5.0000E-10  8.0000E-10
  11    0.000      1.0000E-10  1.0000E-10  1.0000E-10  1.0000E-10  1.0000E-10  1.0000E-10  2.0000E-10  5.0000E-10   0.000    
  12   1.0000E-10  1.0000E-10  1.0000E-10  1.0000E-10  1.0000E-10  1.0000E-10  1.0000E-10  1.0000E-10  2.0000E-10   0.000    
  13   1.0000E-10  1.0000E-10  2.0000E-10  2.0000E-10  2.0000E-10  2.0000E-10  2.0000E-10  1.0000E-10  1.0000E-10   0.000    
  14    0.000      2.0000E-10  5.0000E-10  5.0000E-10  5.0000E-10  5.0000E-10  5.0000E-10  2.0000E-10  1.0000E-10   0.000    
  15    0.000       0.000      8.0000E-10  8.0000E-10  8.0000E-10  8.0000E-10   0.000       0.000       0.000       0.000    

                  ET RATE =  5.000000E-10

 USING ET EXTINCTION DEPTH FROM PREVIOUS STRESS PERIOD. CURRENT PERIOD IS:      12

 USING EXTINCTION WATER CONTENT FROM PREVIOUS STRESS PERIOD. CURRENT PERIOD IS:      12

 USING AIR ENTRY PRESSURE FROM PREVIOUS STRESS PERIOD. CURRENT PERIOD IS:      12

 USING ROOT PRESSURE HEAD FROM PREVIOUS STRESS PERIOD. CURRENT PERIOD IS:      12

 USING ROOT ACTIVITY FROM PREVIOUS STRESS PERIOD. CURRENT PERIOD IS:      12

 PROCESSING AG STRESS PERIOD DATA

 READING AG STRESS PERIOD DATA

 READING IRRIGATION WELL

 END PROCESSING AG STRESS PERIOD DATA OPTIONS
 
 SOLVING FOR HEAD 
                                                   Max.-Head-Change                         Max.-Flux-Residual
  Residual-Control   Outer-Iter.   Inner-Iter.     Column Row Layer    Maximum-Head-Change  Column Row Layer    Maximum-Flux-Residual          L2-NORM 
          0                 1           2             4    7     1       0.3313546453E-01       4    7    1         0.1747873661E+01      0.3982960928E+01
          0                 2           2             4    7     1      -0.3221460635E-02       4    7    1        -0.1746945240E+00      0.3980689277E+00
          0                 3           2             4    7     1       0.2192046731E-03       4    7    1         0.1221942102E-01      0.2784311850E-01
          0                 4           1             4    7     1      -0.8711462716E-05       4    7    1        -0.4991500648E-03      0.1137342510E-02

    ------------------------------------------------
       NWT REQUIRED            4 OUTER ITERATIONS 
       AND A TOTAL OF          7 INNER ITERATIONS.
    ------------------------------------------------

 NO OUTPUT CONTROL FOR STRESS PERIOD   12   TIME STEP    1
 
 SOLVING FOR HEAD 
                                                   Max.-Head-Change                         Max.-Flux-Residual
  Residual-Control   Outer-Iter.   Inner-Iter.     Column Row Layer    Maximum-Head-Change  Column Row Layer    Maximum-Flux-Residual          L2-NORM 
          0                 1           2             4    7     1       0.3264743770E-01       4    7    1         0.1721671184E+01      0.3940362379E+01
          0                 2           2             4    7     1      -0.3174013370E-02       4    7    1        -0.1720756115E+00      0.3937965506E+00
          0                 3           2             4    7     1       0.2159760868E-03       4    7    1         0.1203623289E-01      0.2754290530E-01
          0                 4           1             4    7     1      -0.8583151969E-05       4    7    1        -0.4916668602E-03      0.1125003386E-02

    ------------------------------------------------
       NWT REQUIRED            4 OUTER ITERATIONS 
       AND A TOTAL OF          7 INNER ITERATIONS.
    ------------------------------------------------

 NO OUTPUT CONTROL FOR STRESS PERIOD   12   TIME STEP    2
 
 SOLVING FOR HEAD 
                                                   Max.-Head-Change                         Max.-Flux-Residual
  Residual-Control   Outer-Iter.   Inner-Iter.     Column Row Layer    Maximum-Head-Change  Column Row Layer    Maximum-Flux-Residual          L2-NORM 
          0                 1           2             4    7     1       0.3217461958E-01       4    7    1         0.1696308990E+01      0.3892619844E+01
          0                 2           2             4    7     1      -0.3128044784E-02       4    7    1        -0.1695406870E+00      0.3890355583E+00
          0                 3           2             4    7     1       0.2128481187E-03       4    7    1         0.1185891967E-01      0.2721096445E-01
          0                 4           1             4    7     1      -0.8458840410E-05       4    7    1        -0.4844236535E-03      0.1111572247E-02

    ------------------------------------------------
       NWT REQUIRED            4 OUTER ITERATIONS 
       AND A TOTAL OF          7 INNER ITERATIONS.
    ------------------------------------------------

 NO OUTPUT CONTROL FOR STRESS PERIOD   12   TIME STEP    3
 
 SOLVING FOR HEAD 
                                                   Max.-Head-Change                         Max.-Flux-Residual
  Residual-Control   Outer-Iter.   Inner-Iter.     Column Row Layer    Maximum-Head-Change  Column Row Layer    Maximum-Flux-Residual          L2-NORM 
          0                 1           2             4    7     1       0.3171622608E-01       4    7    1         0.1671742677E+01      0.3846154164E+01
          0                 2           2             4    7     1      -0.3083478724E-02       4    7    1        -0.1670853122E+00      0.3844006180E+00
          0                 3           2             4    7     1       0.2098155897E-03       4    7    1         0.1168717090E-01      0.2688754016E-01
          0                 4           1             4    7     1      -0.8338321959E-05       4    7    1        -0.4774077618E-03      0.1098571600E-02

    ------------------------------------------------
       NWT REQUIRED            4 OUTER ITERATIONS 
       AND A TOTAL OF          7 INNER ITERATIONS.
    ------------------------------------------------

 NO OUTPUT CONTROL FOR STRESS PERIOD   12   TIME STEP    4
 
 SOLVING FOR HEAD 
                                                   Max.-Head-Change                         Max.-Flux-Residual
  Residual-Control   Outer-Iter.   Inner-Iter.     Column Row Layer    Maximum-Head-Change  Column Row Layer    Maximum-Flux-Residual          L2-NORM 
          0                 1           2             4    7     1       0.3127153531E-01       4    7    1         0.1647931587E+01      0.3800878360E+01
          0                 2           2             4    7     1      -0.3040244809E-02       4    7    1        -0.1647054232E+00      0.3798833166E+00
          0                 3           2             4    7     1       0.2068737088E-03       4    7    1         0.1152070232E-01      0.2657225443E-01
          0                 4           1             4    7     1      -0.8221406197E-05       4    7    1        -0.4706075661E-03      0.1085542050E-02

    ------------------------------------------------
       NWT REQUIRED            4 OUTER ITERATIONS 
       AND A TOTAL OF          7 INNER ITERATIONS.
    ------------------------------------------------

 NO OUTPUT CONTROL FOR STRESS PERIOD   12   TIME STEP    5
 
 SOLVING FOR HEAD 
                                                   Max.-Head-Change                         Max.-Flux-Residual
  Residual-Control   Outer-Iter.   Inner-Iter.     Column Row Layer    Maximum-Head-Change  Column Row Layer    Maximum-Flux-Residual          L2-NORM 
          0                 1           2             4    7     1       0.3083948297E-01       4    7    1         0.1624816293E+01      0.3756718289E+01
          0                 2           2             4    7     1      -0.2998239665E-02       4    7    1        -0.1623950802E+00      0.3754764714E+00
          0                 3           2             4    7     1       0.2040154427E-03       4    7    1         0.1135909845E-01      0.2626463770E-01
          0                 4           1             4    7     1      -0.8107813823E-05       4    7    1        -0.4640061200E-03      0.1072862602E-02

    ------------------------------------------------
       NWT REQUIRED            4 OUTER ITERATIONS 
       AND A TOTAL OF          7 INNER ITERATIONS.
    ------------------------------------------------

 NO OUTPUT CONTROL FOR STRESS PERIOD   12   TIME STEP    6
 
 SOLVING FOR HEAD 
                                                   Max.-Head-Change                         Max.-Flux-Residual
  Residual-Control   Outer-Iter.   Inner-Iter.     Column Row Layer    Maximum-Head-Change  Column Row Layer    Maximum-Flux-Residual          L2-NORM 
          0                 1           2             4    7     1       0.3041974240E-01       4    7    1         0.1602378289E+01      0.3713597717E+01
          0                 2           2             4    7     1      -0.2957431530E-02       4    7    1        -0.1601524333E+00      0.3711720724E+00
          0                 3           2             4    7     1       0.2012386287E-03       4    7    1         0.1120222987E-01      0.2596409831E-01
          0                 4           1             4    7     1      -0.7997458262E-05       4    7    1        -0.4575980940E-03      0.1060854827E-02

    ------------------------------------------------
       NWT REQUIRED            4 OUTER ITERATIONS 
       AND A TOTAL OF          7 INNER ITERATIONS.
    ------------------------------------------------

 NO OUTPUT CONTROL FOR STRESS PERIOD   12   TIME STEP    7
 
 SOLVING FOR HEAD 
                                                   Max.-Head-Change                         Max.-Flux-Residual
  Residual-Control   Outer-Iter.   Inner-Iter.     Column Row Layer    Maximum-Head-Change  Column Row Layer    Maximum-Flux-Residual          L2-NORM 
          0                 1           2             4    7     1       0.3001136001E-01       4    7    1         0.1580563955E+01      0.3671453967E+01
          0                 2           2             4    7     1      -0.2917727691E-02       4    7    1        -0.1579721232E+00      0.3669650871E+00
          0                 3           2             4    7     1       0.1985369586E-03       4    7    1         0.1104972169E-01      0.2567029837E-01
          0                 4           1             4    7     1      -0.7890089456E-05       4    7    1        -0.4513682106E-03      0.1048803740E-02

    ------------------------------------------------
       NWT REQUIRED            4 OUTER ITERATIONS 
       AND A TOTAL OF          7 INNER ITERATIONS.
    ------------------------------------------------

 NO OUTPUT CONTROL FOR STRESS PERIOD   12   TIME STEP    8
 
 SOLVING FOR HEAD 
                                                   Max.-Head-Change                         Max.-Flux-Residual
  Residual-Control   Outer-Iter.   Inner-Iter.     Column Row Layer    Maximum-Head-Change  Column Row Layer    Maximum-Flux-Residual          L2-NORM 
          0                 1           2             4    7     1       0.2961383628E-01       4    7    1         0.1559345861E+01      0.3630236864E+01
          0                 2           2             4    7     1      -0.2879079582E-02       4    7    1        -0.1558514081E+00      0.3628501888E+00
          0                 3           2             4    7     1       0.1959071280E-03       4    7    1         0.1090138216E-01      0.2538278778E-01
          0                 4           1             4    7     1      -0.7785575009E-05       4    7    1        -0.4453086001E-03      0.1037066335E-02

    ------------------------------------------------
       NWT REQUIRED            4 OUTER ITERATIONS 
       AND A TOTAL OF          7 INNER ITERATIONS.
    ------------------------------------------------

 NO OUTPUT CONTROL FOR STRESS PERIOD   12   TIME STEP    9
 
 SOLVING FOR HEAD 
                                                   Max.-Head-Change                         Max.-Flux-Residual
  Residual-Control   Outer-Iter.   Inner-Iter.     Column Row Layer    Maximum-Head-Change  Column Row Layer    Maximum-Flux-Residual          L2-NORM 
          0                 1           2             4    7     1       0.2922658523E-01       4    7    1         0.1538690769E+01      0.3589893450E+01
          0                 2           2             4    7     1      -0.2841430230E-02       4    7    1        -0.1537869656E+00      0.3588217639E+00
          0                 3           2             4    7     1       0.1933452587E-03       4    7    1         0.1075697881E-01      0.2510136692E-01
          0                 4           1             4    7     1      -0.7683762261E-05       4    7    1        -0.4394098044E-03      0.1025527334E-02

    ------------------------------------------------
       NWT REQUIRED            4 OUTER ITERATIONS 
       AND A TOTAL OF          7 INNER ITERATIONS.
    ------------------------------------------------

 NO OUTPUT CONTROL FOR STRESS PERIOD   12   TIME STEP   10
 
 SOLVING FOR HEAD 
                                                   Max.-Head-Change                         Max.-Flux-Residual
  Residual-Control   Outer-Iter.   Inner-Iter.     Column Row Layer    Maximum-Head-Change  Column Row Layer    Maximum-Flux-Residual          L2-NORM 
          0                 1           2             4    7     1       0.2884906507E-01       4    7    1         0.1518568298E+01      0.3550382694E+01
          0                 2           2             4    7     1      -0.2804726958E-02       4    7    1        -0.1517757592E+00      0.3548759227E+00
          0                 3           2             4    7     1       0.1908477675E-03       4    7    1         0.1061629928E-01      0.2482562534E-01
          0                 4           1             4    7     1      -0.7584508223E-05       4    7    1        -0.4336631359E-03      0.1014319046E-02

    ------------------------------------------------
       NWT REQUIRED            4 OUTER ITERATIONS 
       AND A TOTAL OF          7 INNER ITERATIONS.
    ------------------------------------------------

 NO OUTPUT CONTROL FOR STRESS PERIOD   12   TIME STEP   11
 
 SOLVING FOR HEAD 
                                                   Max.-Head-Change                         Max.-Flux-Residual
  Residual-Control   Outer-Iter.   Inner-Iter.     Column Row Layer    Maximum-Head-Change  Column Row Layer    Maximum-Flux-Residual          L2-NORM 
          0                 1           2             4    7     1       0.2848090212E-01       4    7    1         0.1498957695E+01      0.3511664175E+01
          0                 2           2             4    7     1      -0.2768933435E-02       4    7    1        -0.1498157146E+00      0.3510089150E+00
          0                 3           2             4    7     1       0.1884121815E-03       4    7    1         0.1047919850E-01      0.2455546900E-01
          0                 4           1             4    7     1      -0.7487713657E-05       4    7    1        -0.4280626415E-03      0.1003188946E-02

    ------------------------------------------------
       NWT REQUIRED            4 OUTER ITERATIONS 
       AND A TOTAL OF          7 INNER ITERATIONS.
    ------------------------------------------------

 NO OUTPUT CONTROL FOR STRESS PERIOD   12   TIME STEP   12
 
 SOLVING FOR HEAD 
                                                   Max.-Head-Change                         Max.-Flux-Residual
  Residual-Control   Outer-Iter.   Inner-Iter.     Column Row Layer    Maximum-Head-Change  Column Row Layer    Maximum-Flux-Residual          L2-NORM 
          0                 1           2             4    7     1       0.2812148733E-01       4    7    1         0.1479824908E+01      0.3473700410E+01
          0                 2           2             4    7     1      -0.2733990446E-02       4    7    1        -0.1479034280E+00      0.3472169077E+00
          0                 3           2             4    7     1       0.1860344708E-03       4    7    1         0.1034543832E-01      0.2429041488E-01
          0                 4           1             4    7     1      -0.7393219456E-05       4    7    1        -0.4225986031E-03      0.9924706930E-03

    ------------------------------------------------
       NWT REQUIRED            4 OUTER ITERATIONS 
       AND A TOTAL OF          7 INNER ITERATIONS.
    ------------------------------------------------

 NO OUTPUT CONTROL FOR STRESS PERIOD   12   TIME STEP   13
 
 SOLVING FOR HEAD 
                                                   Max.-Head-Change                         Max.-Flux-Residual
  Residual-Control   Outer-Iter.   Inner-Iter.     Column Row Layer    Maximum-Head-Change  Column Row Layer    Maximum-Flux-Residual          L2-NORM 
          0                 1           2             4    7     1       0.2777051694E-01       4    7    1         0.1461153037E+01      0.3436449909E+01
          0                 2           2             4    7     1      -0.2699868456E-02       4    7    1        -0.1460372104E+00      0.3434958676E+00
          0                 3           2             4    7     1       0.1837126270E-03       4    7    1         0.1021490061E-01      0.2403030407E-01
          0                 4           1             4    7     1      -0.7300946181E-05       4    7    1        -0.4172662311E-03      0.9818653464E-03

    ------------------------------------------------
       NWT REQUIRED            4 OUTER ITERATIONS 
       AND A TOTAL OF          7 INNER ITERATIONS.
    ------------------------------------------------

 NO OUTPUT CONTROL FOR STRESS PERIOD   12   TIME STEP   14
 
 SOLVING FOR HEAD 
                                                   Max.-Head-Change                         Max.-Flux-Residual
  Residual-Control   Outer-Iter.   Inner-Iter.     Column Row Layer    Maximum-Head-Change  Column Row Layer    Maximum-Flux-Residual          L2-NORM 
          0                 1           2             4    7     1       0.2742757920E-01       4    7    1         0.1442918993E+01      0.3399895404E+01
          0                 2           2             4    7     1      -0.2666527434E-02       4    7    1        -0.1442147541E+00      0.3398440542E+00
          0                 3           2             4    7     1       0.1814439252E-03       4    7    1         0.1008742398E-01      0.2377504730E-01
          0                 4           1             4    7     1      -0.7210784116E-05       4    7    1        -0.4120588872E-03      0.9714826174E-03

    ------------------------------------------------
       NWT REQUIRED            4 OUTER ITERATIONS 
       AND A TOTAL OF          7 INNER ITERATIONS.
    ------------------------------------------------

 NO OUTPUT CONTROL FOR STRESS PERIOD   12   TIME STEP   15
 
 SOLVING FOR HEAD 
                                                   Max.-Head-Change                         Max.-Flux-Residual
  Residual-Control   Outer-Iter.   Inner-Iter.     Column Row Layer    Maximum-Head-Change  Column Row Layer    Maximum-Flux-Residual          L2-NORM 
          0                 1           2             4    7     1       0.2709215899E-01       4    7    1         0.1425094087E+01      0.3364003945E+01
          0                 2           2             4    7     1      -0.2633917296E-02       4    7    1        -0.1424331911E+00      0.3362583480E+00
          0                 3           2             4    7     1       0.1792249573E-03       4    7    1         0.9962807775E-02      0.2352439022E-01
          0                 4           1             4    7     1      -0.7122599137E-05       4    7    1        -0.4069684130E-03      0.9612803045E-03

    ------------------------------------------------
       NWT REQUIRED            4 OUTER ITERATIONS 
       AND A TOTAL OF          7 INNER ITERATIONS.
    ------------------------------------------------

 NO OUTPUT CONTROL FOR STRESS PERIOD   12   TIME STEP   16
 
 SOLVING FOR HEAD 
                                                   Max.-Head-Change                         Max.-Flux-Residual
  Residual-Control   Outer-Iter.   Inner-Iter.     Column Row Layer    Maximum-Head-Change  Column Row Layer    Maximum-Flux-Residual          L2-NORM 
          0                 1           2             4    7     1       0.2676417573E-01       4    7    1         0.1407673634E+01      0.3328758347E+01
          0                 2           2             4    7     1      -0.2602030206E-02       4    7    1        -0.1406920536E+00      0.3327368171E+00
          0                 3           2             4    7     1       0.1770551900E-03       4    7    1         0.9841019253E-02      0.2327811117E-01
          0                 4           1             4    7     1      -0.7036369600E-05       4    7    1        -0.4019934543E-03      0.9512085072E-03

    ------------------------------------------------
       NWT REQUIRED            4 OUTER ITERATIONS 
       AND A TOTAL OF          7 INNER ITERATIONS.
    ------------------------------------------------

 NO OUTPUT CONTROL FOR STRESS PERIOD   12   TIME STEP   17
 
 SOLVING FOR HEAD 
                                                   Max.-Head-Change                         Max.-Flux-Residual
  Residual-Control   Outer-Iter.   Inner-Iter.     Column Row Layer    Maximum-Head-Change  Column Row Layer    Maximum-Flux-Residual          L2-NORM 
          0                 1           2             4    7     1       0.2644315563E-01       4    7    1         0.1390631432E+01      0.3294123011E+01
          0                 2           2             4    7     1      -0.2570820103E-02       4    7    1        -0.1389887223E+00      0.3292762494E+00
          0                 3           2             4    7     1       0.1749314892E-03       4    7    1         0.9721875266E-02      0.2303617336E-01
          0                 4           1             4    7     1      -0.6951970823E-05       4    7    1        -0.3971265101E-03      0.9412765832E-03

    ------------------------------------------------
       NWT REQUIRED            4 OUTER ITERATIONS 
       AND A TOTAL OF          7 INNER ITERATIONS.
    ------------------------------------------------

 NO OUTPUT CONTROL FOR STRESS PERIOD   12   TIME STEP   18
 
 SOLVING FOR HEAD 
                                                   Max.-Head-Change                         Max.-Flux-Residual
  Residual-Control   Outer-Iter.   Inner-Iter.     Column Row Layer    Maximum-Head-Change  Column Row Layer    Maximum-Flux-Residual          L2-NORM 
          0                 1           2             4    7     1       0.2612865550E-01       4    7    1         0.1373942915E+01      0.3260077572E+01
          0                 2           2             4    7     1      -0.2540243894E-02       4    7    1        -0.1373207419E+00      0.3258743943E+00
          0                 3           2             4    7     1       0.1728509222E-03       4    7    1         0.9605203990E-02      0.2279827712E-01
          0                 4           1             4    7     1      -0.6869286065E-05       4    7    1        -0.3923605782E-03      0.9315907088E-03

    ------------------------------------------------
       NWT REQUIRED            4 OUTER ITERATIONS 
       AND A TOTAL OF          7 INNER ITERATIONS.
    ------------------------------------------------

 NO OUTPUT CONTROL FOR STRESS PERIOD   12   TIME STEP   19
 
 SOLVING FOR HEAD 
                                                   Max.-Head-Change                         Max.-Flux-Residual
  Residual-Control   Outer-Iter.   Inner-Iter.     Column Row Layer    Maximum-Head-Change  Column Row Layer    Maximum-Flux-Residual          L2-NORM 
          0                 1           2             4    7     1       0.2582079451E-01       4    7    1         0.1357614474E+01      0.3226616206E+01
          0                 2           2             4    7     1      -0.2510313166E-02       4    7    1        -0.1356887512E+00      0.3225307854E+00
          0                 3           2             4    7     1       0.1708142779E-03       4    7    1         0.9491050183E-02      0.2256447490E-01
          0                 4           1             4    7     1      -0.6788346527E-05       4    7    1        -0.3876974667E-03      0.9220519108E-03

    ------------------------------------------------
       NWT REQUIRED            4 OUTER ITERATIONS 
       AND A TOTAL OF          7 INNER ITERATIONS.
    ------------------------------------------------

 NO OUTPUT CONTROL FOR STRESS PERIOD   12   TIME STEP   20
 
 SOLVING FOR HEAD 
                                                   Max.-Head-Change                         Max.-Flux-Residual
  Residual-Control   Outer-Iter.   Inner-Iter.     Column Row Layer    Maximum-Head-Change  Column Row Layer    Maximum-Flux-Residual          L2-NORM 
          0                 1           2             4    7     1       0.2551888524E-01       4    7    1         0.1341608232E+01      0.3193707035E+01
          0                 2           2             4    7     1      -0.2480961086E-02       4    7    1        -0.1340889643E+00      0.3192422227E+00
          0                 3           2             4    7     1       0.1688170090E-03       4    7    1         0.9379148960E-02      0.2233450192E-01
          0                 4           1             4    7     1      -0.6708972839E-05       4    7    1        -0.3831264362E-03      0.9127782912E-03

    ------------------------------------------------
       NWT REQUIRED            4 OUTER ITERATIONS 
       AND A TOTAL OF          7 INNER ITERATIONS.
    ------------------------------------------------

 NO OUTPUT CONTROL FOR STRESS PERIOD   12   TIME STEP   21
 
 SOLVING FOR HEAD 
                                                   Max.-Head-Change                         Max.-Flux-Residual
  Residual-Control   Outer-Iter.   Inner-Iter.     Column Row Layer    Maximum-Head-Change  Column Row Layer    Maximum-Flux-Residual          L2-NORM 
          0                 1           2             4    7     1       0.2522295492E-01       4    7    1         0.1325925262E+01      0.3161338871E+01
          0                 2           2             4    7     1      -0.2452190300E-02       4    7    1        -0.1325214885E+00      0.3160076504E+00
          0                 3           2             4    7     1       0.1668592939E-03       4    7    1         0.9269507858E-02      0.2210826749E-01
          0                 4           1             4    7     1      -0.6631170182E-05       4    7    1        -0.3786476634E-03      0.9033876677E-03

    ------------------------------------------------
       NWT REQUIRED            4 OUTER ITERATIONS 
       AND A TOTAL OF          7 INNER ITERATIONS.
    ------------------------------------------------

 NO OUTPUT CONTROL FOR STRESS PERIOD   12   TIME STEP   22
 
 SOLVING FOR HEAD 
                                                   Max.-Head-Change                         Max.-Flux-Residual
  Residual-Control   Outer-Iter.   Inner-Iter.     Column Row Layer    Maximum-Head-Change  Column Row Layer    Maximum-Flux-Residual          L2-NORM 
          0                 1           2             4    7     1       0.2493276321E-01       4    7    1         0.1310552290E+01      0.3129499250E+01
          0                 2           2             4    7     1      -0.2423977440E-02       4    7    1        -0.1309849968E+00      0.3128257906E+00
          0                 3           2             4    7     1       0.1649395437E-03       4    7    1         0.9162034042E-02      0.2188570694E-01
          0                 4           1             4    7     1      -0.6554876618E-05       4    7    1        -0.3742574459E-03      0.8942841188E-03

    ------------------------------------------------
       NWT REQUIRED            4 OUTER ITERATIONS 
       AND A TOTAL OF          7 INNER ITERATIONS.
    ------------------------------------------------

 NO OUTPUT CONTROL FOR STRESS PERIOD   12   TIME STEP   23
 
 SOLVING FOR HEAD 
                                                   Max.-Head-Change                         Max.-Flux-Residual
  Residual-Control   Outer-Iter.   Inner-Iter.     Column Row Layer    Maximum-Head-Change  Column Row Layer    Maximum-Flux-Residual          L2-NORM 
          0                 1           2             4    7     1       0.2464794586E-01       4    7    1         0.1295469511E+01      0.3098164568E+01
          0                 2           2             4    7     1      -0.2396287093E-02       4    7    1        -0.1294775099E+00      0.3096943682E+00
          0                 3           2             4    7     1       0.1630553485E-03       4    7    1         0.9056589059E-02      0.2166676340E-01
          0                 4           1             4    7     1      -0.6479996475E-05       4    7    1        -0.3699501217E-03      0.8854120093E-03

    ------------------------------------------------
       NWT REQUIRED            4 OUTER ITERATIONS 
       AND A TOTAL OF          7 INNER ITERATIONS.
    ------------------------------------------------

 NO OUTPUT CONTROL FOR STRESS PERIOD   12   TIME STEP   24
 
 SOLVING FOR HEAD 
                                                   Max.-Head-Change                         Max.-Flux-Residual
  Residual-Control   Outer-Iter.   Inner-Iter.     Column Row Layer    Maximum-Head-Change  Column Row Layer    Maximum-Flux-Residual          L2-NORM 
          0                 1           2             4    7     1       0.2436857020E-01       4    7    1         0.1280680071E+01      0.3067327625E+01
          0                 2           2             4    7     1      -0.2369125805E-02       4    7    1        -0.1279993422E+00      0.3066125419E+00
          0                 3           2             4    7     1       0.1612071538E-03       4    7    1         0.8953194912E-02      0.2145115694E-01
          0                 4           1             4    7     1      -0.6406546908E-05       4    7    1        -0.3657265652E-03      0.8765562029E-03

    ------------------------------------------------
       NWT REQUIRED            4 OUTER ITERATIONS 
       AND A TOTAL OF          7 INNER ITERATIONS.
    ------------------------------------------------

 NO OUTPUT CONTROL FOR STRESS PERIOD   12   TIME STEP   25
 
 SOLVING FOR HEAD 
                                                   Max.-Head-Change                         Max.-Flux-Residual
  Residual-Control   Outer-Iter.   Inner-Iter.     Column Row Layer    Maximum-Head-Change  Column Row Layer    Maximum-Flux-Residual          L2-NORM 
          0                 1           2             4    7     1       0.2409415646E-01       4    7    1         0.1266158084E+01      0.3036973914E+01
          0                 2           2             4    7     1      -0.2342446930E-02       4    7    1        -0.1265479062E+00      0.3035790538E+00
          0                 3           2             4    7     1       0.1593917851E-03       4    7    1         0.8851670617E-02      0.2123902344E-01
          0                 4           1             4    7     1      -0.6334401507E-05       4    7    1        -0.3615793821E-03      0.8678980923E-03

    ------------------------------------------------
       NWT REQUIRED            4 OUTER ITERATIONS 
       AND A TOTAL OF          7 INNER ITERATIONS.
    ------------------------------------------------

 NO OUTPUT CONTROL FOR STRESS PERIOD   12   TIME STEP   26
 
 SOLVING FOR HEAD 
                                                   Max.-Head-Change                         Max.-Flux-Residual
  Residual-Control   Outer-Iter.   Inner-Iter.     Column Row Layer    Maximum-Head-Change  Column Row Layer    Maximum-Flux-Residual          L2-NORM 
          0                 1           2             4    7     1       0.2382452770E-01       4    7    1         0.1251893362E+01      0.3007083021E+01
          0                 2           2             4    7     1      -0.2316233265E-02       4    7    1        -0.1251221838E+00      0.3005916883E+00
          0                 3           2             4    7     1       0.1576080727E-03       4    7    1         0.8751944939E-02      0.2103010174E-01
          0                 4           1             4    7     1      -0.6263514911E-05       4    7    1        -0.3575057046E-03      0.8593648016E-03

    ------------------------------------------------
       NWT REQUIRED            4 OUTER ITERATIONS 
       AND A TOTAL OF          7 INNER ITERATIONS.
    ------------------------------------------------

 NO OUTPUT CONTROL FOR STRESS PERIOD   12   TIME STEP   27
 
 SOLVING FOR HEAD 
                                                   Max.-Head-Change                         Max.-Flux-Residual
  Residual-Control   Outer-Iter.   Inner-Iter.     Column Row Layer    Maximum-Head-Change  Column Row Layer    Maximum-Flux-Residual          L2-NORM 
          0                 1           2             4    7     1       0.2355978263E-01       4    7    1         0.1237891425E+01      0.2977651344E+01
          0                 2           2             4    7     1      -0.2290494407E-02       4    7    1        -0.1237227265E+00      0.2976501649E+00
          0                 3           2             4    7     1       0.1558566678E-03       4    7    1         0.8654056446E-02      0.2082432631E-01
          0                 4           1             4    7     1      -0.6193911411E-05       4    7    1        -0.3535070321E-03      0.8509646767E-03

    ------------------------------------------------
       NWT REQUIRED            4 OUTER ITERATIONS 
       AND A TOTAL OF          7 INNER ITERATIONS.
    ------------------------------------------------

 NO OUTPUT CONTROL FOR STRESS PERIOD   12   TIME STEP   28
 
 SOLVING FOR HEAD 
                                                   Max.-Head-Change                         Max.-Flux-Residual
  Residual-Control   Outer-Iter.   Inner-Iter.     Column Row Layer    Maximum-Head-Change  Column Row Layer    Maximum-Flux-Residual          L2-NORM 
          0                 1           2             4    7     1       0.2329961572E-01       4    7    1         0.1224135352E+01      0.2948670861E+01
          0                 2           2             4    7     1      -0.2265200649E-02       4    7    1        -0.1223478432E+00      0.2947537606E+00
          0                 3           2             4    7     1       0.1541355505E-03       4    7    1         0.8557886856E-02      0.2062171445E-01
          0                 4           1             4    7     1      -0.6125512032E-05       4    7    1        -0.3495786011E-03      0.8426827248E-03

    ------------------------------------------------
       NWT REQUIRED            4 OUTER ITERATIONS 
       AND A TOTAL OF          7 INNER ITERATIONS.
    ------------------------------------------------

 NO OUTPUT CONTROL FOR STRESS PERIOD   12   TIME STEP   29
 
 SOLVING FOR HEAD 
                                                   Max.-Head-Change                         Max.-Flux-Residual
  Residual-Control   Outer-Iter.   Inner-Iter.     Column Row Layer    Maximum-Head-Change  Column Row Layer    Maximum-Flux-Residual          L2-NORM 
          0                 1           2             4    7     1       0.2304386574E-01       4    7    1         0.1210616648E+01      0.2921272588E+01
          0                 2           2             4    7     1      -0.2240336319E-02       4    7    1        -0.1209966847E+00      0.2920119248E+00
          0                 3           2             4    7     1       0.1524436540E-03       4    7    1         0.8463376783E-02      0.2042964488E-01
          0                 4           1             4    7     1      -0.6058273829E-05       4    7    1        -0.3457179562E-03      0.8348269792E-03

    ------------------------------------------------
       NWT REQUIRED            4 OUTER ITERATIONS 
       AND A TOTAL OF          7 INNER ITERATIONS.
    ------------------------------------------------

 NO OUTPUT CONTROL FOR STRESS PERIOD   12   TIME STEP   30



 STREAM LISTING     PERIOD     12   STEP       30

 LAYER ROW COL. STREAM  RCH.  FLOW INTO     FLOW TO   FLOW OUT OF   OVRLND.     DIRECT     STREAM       STREAM     STREAM     STREAM   STREAMBED  STREAMBED
                SEG.NO.  NO.  STRM. RCH.    AQUIFER    STRM. RCH.    RUNOFF     PRECIP       ET          HEAD       DEPTH      WIDTH   CONDCTNC.   GRADIENT

   1    1    1     1     1    2.5441E+01  2.4717E-01   2.5194E+01  0.000E+00  0.000E+00  0.000E+00  1.09423E+03  1.185E+00  1.313E+01  5.906E-02  1.395E+00
   1    2    2     1     2    2.5194E+01  3.8224E-01   2.4811E+01  0.000E+00  0.000E+00  0.000E+00  1.08924E+03  1.180E+00  1.306E+01  9.144E-02  1.393E+00
   1    3    3     1     3    2.4811E+01  3.2545E-01   2.4486E+01  0.000E+00  0.000E+00  0.000E+00  1.08359E+03  1.175E+00  1.299E+01  7.795E-02  1.392E+00
   1    3    4     1     4    2.4486E+01  2.9925E-01   2.4187E+01  0.000E+00  0.000E+00  0.000E+00  1.07858E+03  1.170E+00  1.293E+01  7.176E-02  1.390E+00
   1    4    5     2     1    2.2187E+01  3.2130E-01   2.1865E+01  0.000E+00  0.000E+00  0.000E+00  1.07305E+03  1.119E+00  1.200E+01  7.800E-02  1.373E+00
   1    5    6     2     2    2.1865E+01  2.4663E-01   2.1619E+01  0.000E+00  0.000E+00  0.000E+00  1.06762E+03  1.111E+00  1.200E+01  6.000E-02  1.370E+00
   1    6    6     2     3    2.1619E+01  2.4618E-01   2.1373E+01  0.000E+00  0.000E+00  0.000E+00  1.06290E+03  1.103E+00  1.200E+01  6.000E-02  1.368E+00
   1    7    6     2     4    2.1373E+01  2.4572E-01   2.1127E+01  0.000E+00  0.000E+00  0.000E+00  1.05817E+03  1.095E+00  1.200E+01  6.000E-02  1.365E+00
   1    8    6     2     5    2.1127E+01  2.4527E-01   2.0882E+01  0.000E+00  0.000E+00  0.000E+00  1.05345E+03  1.088E+00  1.200E+01  6.000E-02  1.363E+00
   1    3    5     3     1    2.0000E+00  2.8252E-01   1.7175E+00  0.000E+00  0.000E+00  0.000E+00  1.07555E+03  1.909E+00  9.636E+00  7.227E-02  1.955E+00
   1    3    6     3     2    1.7175E+00  2.4905E-01   1.4684E+00  0.000E+00  0.000E+00  0.000E+00  1.07264E+03  1.727E+00  8.909E+00  6.682E-02  1.864E+00
   1    3    7     3     3    1.4684E+00  1.9718E-01   1.2712E+00  0.000E+00  0.000E+00  0.000E+00  1.06987E+03  1.555E+00  8.218E+00  5.547E-02  1.777E+00
   1    4    8     3     4    1.2712E+00  2.2567E-01   1.0456E+00  0.000E+00  0.000E+00  0.000E+00  1.06682E+03  1.364E+00  7.455E+00  6.709E-02  1.682E+00
   1    5    8     3     5    1.0456E+00  1.5790E-01   8.8768E-01  0.000E+00  0.000E+00  0.000E+00  1.06362E+03  1.164E+00  6.655E+00  4.991E-02  1.582E+00
   1    6    8     3     6    8.8768E-01  5.5980E-02   8.3170E-01  0.000E+00  0.000E+00  0.000E+00  1.06158E+03  1.036E+00  6.145E+00  1.844E-02  1.518E+00
   1    5   10     4     1    1.0000E+01  9.0919E-02   9.9091E+00  0.000E+00  0.000E+00  0.000E+00  1.07836E+03  6.368E-01  1.000E+01  2.500E-02  1.212E+00
   1    5    9     4     2    9.9091E+00  1.8158E-01   9.7275E+00  0.000E+00  0.000E+00  0.000E+00  1.07154E+03  6.315E-01  1.000E+01  5.000E-02  1.211E+00
   1    6    8     4     3    9.7275E+00  1.2689E-01   9.6006E+00  0.000E+00  0.000E+00  0.000E+00  1.06381E+03  6.256E-01  1.000E+01  3.500E-02  1.209E+00
   1    6    8     5     1    1.0432E+01  2.2686E-01   1.0205E+01  0.000E+00  0.000E+00  0.000E+00  1.05868E+03  6.790E-01  1.542E+01  6.166E-02  1.226E+00
   1    7    7     5     2    1.0205E+01  2.7894E-01   9.9265E+00  0.000E+00  0.000E+00  0.000E+00  1.05417E+03  6.732E-01  1.519E+01  7.594E-02  1.224E+00
   1    8    7     5     3    9.9265E+00  1.9221E-01   9.7343E+00  0.000E+00  0.000E+00  0.000E+00  1.04992E+03  6.676E-01  1.497E+01  5.241E-02  1.223E+00
   1    8    6     5     4    9.7343E+00  1.3577E-01   9.5985E+00  0.000E+00  0.000E+00  0.000E+00  1.04691E+03  6.637E-01  1.482E+01  3.706E-02  1.221E+00
   1    9    6     6     1    3.0480E+01  2.6230E-01   3.0218E+01  0.000E+00  0.000E+00  0.000E+00  1.04410E+03  1.372E+00  1.200E+01  6.000E-02  1.457E+00
   1   10    7     6     2    3.0218E+01  2.6187E-01   2.9956E+01  0.000E+00  0.000E+00  0.000E+00  1.03955E+03  1.365E+00  1.200E+01  6.000E-02  1.455E+00
   1   11    7     6     3    2.9956E+01  2.6145E-01   2.9695E+01  0.000E+00  0.000E+00  0.000E+00  1.03499E+03  1.357E+00  1.200E+01  6.000E-02  1.452E+00
   1   12    7     6     4    2.9695E+01  2.6102E-01   2.9434E+01  0.000E+00  0.000E+00  0.000E+00  1.03044E+03  1.350E+00  1.200E+01  6.000E-02  1.450E+00
   1   13    7     6     5    2.9434E+01  1.4008E-03   2.9432E+01  0.000E+00  0.000E+00  0.000E+00  1.02726E+03  1.347E+00  1.200E+01  2.400E-02  1.945E-02
   1   14    9     7     1    1.5000E+02  1.3299E+00   1.4867E+02  0.000E+00  0.000E+00  0.000E+00  1.03987E+03  2.288E+00  5.529E+01  5.593E-01  7.926E-01
   1   13    8     7     2    1.4867E+02  1.7970E+00   1.4687E+02  0.000E+00  0.000E+00  0.000E+00  1.03478E+03  2.279E+00  5.526E+01  6.148E-01  9.743E-01
   1   13    7     7     3    1.4687E+02  1.3922E+00   1.4548E+02  0.000E+00  0.000E+00  0.000E+00  1.02969E+03  2.271E+00  5.522E+01  5.585E-01  8.309E-01
   1   13    6     8     1    1.7491E+02  8.6726E-01   1.7405E+02  0.000E+00  0.000E+00  0.000E+00  1.02486E+03  2.981E+00  4.323E+01  4.405E-01  6.563E-01
   1   13    5     8     2    1.7405E+02  1.2578E-01   1.7392E+02  0.000E+00  0.000E+00  0.000E+00  1.01860E+03  2.978E+00  4.318E+01  4.400E-01  9.528E-02
   1   13    4     8     3    1.7392E+02 -2.6004E+00   1.7652E+02  0.000E+00  0.000E+00  0.000E+00  1.01236E+03  2.986E+00  4.330E+01  4.412E+00 -1.965E-01
   1   13    3     8     4    1.7652E+02 -3.7563E+00   1.8028E+02  0.000E+00  0.000E+00  0.000E+00  1.00613E+03  3.006E+00  4.359E+01  4.442E+00 -2.819E-01
   1   13    2     8     5    1.8028E+02 -2.6290E+00   1.8291E+02  0.000E+00  0.000E+00  0.000E+00  9.99901E+02  3.026E+00  4.388E+01  4.471E+00 -1.960E-01
   1   13    1     8     6    1.8291E+02 -2.0231E+00   1.8493E+02  0.000E+00  0.000E+00  0.000E+00  9.94916E+02  3.041E+00  4.409E+01  2.696E+00 -2.502E-01





UNSATURATED ZONE PACKAGE VOLUMETRIC BUDGET FOR  TIME STEP    30 STRESS PERIOD   12
  ------------------------------------------------------------------------------



     CUMULATIVE VOLUMES      L**3       RATES FOR THIS TIME STEP      L**3/T
     ------------------                 ------------------------

           IN:                                      IN:
           ---                                      ---
        INFILTRATION =   500436270.4268          INFILTRATION =           0.8475

          OUT:                                     OUT:
          ----                                     ----
              UZF ET =   428083589.6113                UZF ET =           0.7500
        UZF RECHARGE =    72022808.7079          UZF RECHARGE =           0.0003

            IN - OUT =      329872.1076              IN - OUT =       9.7215E-02

          STORAGE:                                 STORAGE:
          --------                                 --------
      STORAGE CHANGE =      329866.0291        STORAGE CHANGE =       9.7215E-02

 PERCENT DISCREPANCY IS DIFFERENCE BETWEEN IN-OUT MINUS CHANGE IN STORAGE
 DIVIDED BY THE AVERAGE OF IN AND OUT TIMES 100

 PERCENT DISCREPANCY =           0.00     PERCENT DISCREPANCY =           0.00






1
  VOLUMETRIC BUDGET FOR AGRICULTURAL FIELDS AT  END OF TIME STEP   30, STRESS PERIOD  12
  ------------------------------------------------------------------------------

     CUMULATIVE VOLUMES      L**3       RATES FOR THIS TIME STEP      L**3/T
     ------------------                 ------------------------

           IN:                                      IN:
           ---                                      ---
           AG WELLS      =   475844416.0000             AG WELLS      =           0.0000
      DIVERSION SEGMENTS =           0.0000        DIVERSION SEGMENTS =           0.0000
           GW IRRIGATION =           0.0000             GW IRRIGATION =           0.0000
           SW IRRIGATION =           0.0000             SW IRRIGATION =           0.0000
        SYSTEM LOSSES GW =           0.0000          SYSTEM LOSSES GW =           0.0000
        SYSTEM LOSSES SW =           0.0000          SYSTEM LOSSES SW =           0.0000

                TOTAL IN =   475844416.0000                  TOTAL IN =           0.0000

          OUT:                                     OUT:
          ----                                     ----
           AG WELLS      =           0.0000             AG WELLS      =           0.0000
      DIVERSION SEGMENTS =           0.0000        DIVERSION SEGMENTS =           0.0000
           GW IRRIGATION =   475844416.0000             GW IRRIGATION =           0.0000
           SW IRRIGATION =           0.0000             SW IRRIGATION =           0.0000
        SYSTEM LOSSES GW =           0.0000          SYSTEM LOSSES GW =           0.0000
        SYSTEM LOSSES SW =           0.0000          SYSTEM LOSSES SW =           0.0000

               TOTAL OUT =   475844416.0000                 TOTAL OUT =           0.0000

                IN - OUT =           0.0000                  IN - OUT =           0.0000

     PERCENT DISCREPANCY =           0.00         PERCENT DISCREPANCY =           0.00



1
  VOLUMETRIC BUDGET FOR ENTIRE MODEL AT END OF TIME STEP   30, STRESS PERIOD  12
  ------------------------------------------------------------------------------

     CUMULATIVE VOLUMES      L**3       RATES FOR THIS TIME STEP      L**3/T
     ------------------                 ------------------------

           IN:                                      IN:
           ---                                      ---
             STORAGE     =   575261568.0000               STORAGE     =           8.7207
       CONSTANT HEAD     =           0.0000         CONSTANT HEAD     =           0.0000
     HEAD DEP BOUNDS     =     8282453.5000       HEAD DEP BOUNDS     =           0.2854
      STREAM LEAKAGE     =   364446752.0000        STREAM LEAKAGE     =          11.5208
        UZF RECHARGE     =    72022800.0000          UZF RECHARGE     =       2.8488E-04
               GW ET     =           0.0000                 GW ET     =           0.0000
     SURFACE LEAKAGE     =           0.0000       SURFACE LEAKAGE     =           0.0000
           AG WELLS      =           0.0000             AG WELLS      =           0.0000

                TOTAL IN =  1020013568.0000                  TOTAL IN =          20.5272

          OUT:                                     OUT:
          ----                                     ----
             STORAGE     =   222225808.0000               STORAGE     =           9.2271
       CONSTANT HEAD     =           0.0000         CONSTANT HEAD     =           0.0000
     HEAD DEP BOUNDS     =     8560175.0000       HEAD DEP BOUNDS     =           0.2913
      STREAM LEAKAGE     =   299631232.0000        STREAM LEAKAGE     =          11.0088
        UZF RECHARGE     =           0.0000          UZF RECHARGE     =           0.0000
               GW ET     =    13750699.0000                 GW ET     =           0.0000
     SURFACE LEAKAGE     =           0.0000       SURFACE LEAKAGE     =           0.0000
           AG WELLS      =   475844416.0000             AG WELLS      =           0.0000

               TOTAL OUT =  1020012352.0000                 TOTAL OUT =          20.5272

                IN - OUT =        1216.0000                  IN - OUT =       5.7220E-06

     PERCENT DISCREPANCY =           0.00         PERCENT DISCREPANCY =           0.00






         TIME SUMMARY AT END OF TIME STEP   30 IN STRESS PERIOD   12
                    SECONDS     MINUTES      HOURS       DAYS        YEARS
                    -----------------------------------------------------------
   TIME STEP LENGTH  87667.      1461.1      24.352      1.0147     2.77799E-03
 STRESS PERIOD TIME 2.63000E+06  43833.      730.56      30.440     8.33397E-02
         TOTAL TIME 2.90163E+07 4.83606E+05  8060.1      335.84     0.91947    
1
1
                            STRESS PERIOD NO.   13, LENGTH =   2630000.    
                            -----------------------------------------------

                              NUMBER OF TIME STEPS =    30

                               MULTIPLIER FOR DELT =     1.000

                            INITIAL TIME STEP SIZE =   87666.66    

 REUSING NON-PARAMETER GHB CELLS FROM LAST STRESS PERIOD

      2 GHB CELLS

 REUSING STREAM SEGMENT DATA FROM LAST STRESS PERIOD



            AREAL INFILTRATION RATE
 READING ON UNIT   19 WITH FORMAT: (FREE)              

            1           2           3           4           5           6           7           8           9          10
 ........................................................................................................................
   1   1.0000E-10  2.0000E-10   0.000       0.000       0.000       0.000       0.000       0.000       0.000       0.000    
   2   2.0000E-10  1.0000E-10  2.0000E-10   0.000       0.000      8.0000E-10  8.0000E-10  5.0000E-10   0.000       0.000    
   3    0.000      5.0000E-10  1.0000E-10  1.0000E-10  8.0000E-10  8.0000E-10  5.0000E-10  5.0000E-10   0.000       0.000    
   4   8.0000E-10  5.0000E-10  1.0000E-10  1.0000E-10  1.0000E-10  1.0000E-10  1.0000E-10  1.0000E-10  2.0000E-10   0.000    
   5   8.0000E-10  5.0000E-10  1.0000E-10  1.0000E-10  1.0000E-10  1.0000E-10  1.0000E-10  1.0000E-10  1.0000E-10  1.0000E-10
   6   8.0000E-10  5.0000E-10  5.0000E-10  2.0000E-10  2.0000E-10  1.0000E-10  1.0000E-10  1.0000E-10  1.0000E-10  5.0000E-10
   7   8.0000E-10  5.0000E-10  5.0000E-10  2.0000E-10  2.0000E-10  1.0000E-10  1.0000E-10  2.0000E-10  2.0000E-10   0.000    
   8    0.000      5.0000E-10  5.0000E-10  2.0000E-10  2.0000E-10  1.0000E-10  1.0000E-10  2.0000E-10  5.0000E-10   0.000    
   9    0.000      5.0000E-10  5.0000E-10  2.0000E-10  2.0000E-10  1.0000E-10  1.0000E-10  2.0000E-10  5.0000E-10   0.000    
  10    0.000      5.0000E-10  5.0000E-10  2.0000E-10  2.0000E-10  1.0000E-10  1.0000E-10  2.0000E-10  5.0000E-10  8.0000E-10
  11    0.000      1.0000E-10  1.0000E-10  1.0000E-10  1.0000E-10  1.0000E-10  1.0000E-10  2.0000E-10  5.0000E-10   0.000    
  12   1.0000E-10  1.0000E-10  1.0000E-10  1.0000E-10  1.0000E-10  1.0000E-10  1.0000E-10  1.0000E-10  2.0000E-10   0.000    
  13   1.0000E-10  1.0000E-10  2.0000E-10  2.0000E-10  2.0000E-10  2.0000E-10  2.0000E-10  1.0000E-10  1.0000E-10   0.000    
  14    0.000      2.0000E-10  5.0000E-10  5.0000E-10  5.0000E-10  5.0000E-10  5.0000E-10  2.0000E-10  1.0000E-10   0.000    
  15    0.000       0.000      8.0000E-10  8.0000E-10  8.0000E-10  8.0000E-10   0.000       0.000       0.000       0.000    

                  ET RATE =  5.000000E-10

 USING ET EXTINCTION DEPTH FROM PREVIOUS STRESS PERIOD. CURRENT PERIOD IS:      13

 USING EXTINCTION WATER CONTENT FROM PREVIOUS STRESS PERIOD. CURRENT PERIOD IS:      13

 USING AIR ENTRY PRESSURE FROM PREVIOUS STRESS PERIOD. CURRENT PERIOD IS:      13

 USING ROOT PRESSURE HEAD FROM PREVIOUS STRESS PERIOD. CURRENT PERIOD IS:      13

 USING ROOT ACTIVITY FROM PREVIOUS STRESS PERIOD. CURRENT PERIOD IS:      13

 PROCESSING AG STRESS PERIOD DATA

 READING AG STRESS PERIOD DATA

 READING IRRIGATION WELL

 END PROCESSING AG STRESS PERIOD DATA OPTIONS
 
 SOLVING FOR HEAD 
                                                   Max.-Head-Change                         Max.-Flux-Residual
  Residual-Control   Outer-Iter.   Inner-Iter.     Column Row Layer    Maximum-Head-Change  Column Row Layer    Maximum-Flux-Residual          L2-NORM 
          0                 1           2             4    7     1       0.2279250440E-01       4    7    1         0.1197334301E+01      0.2899968455E+01
          0                 2           2             4    7     1      -0.2215898666E-02       4    7    1        -0.1196691501E+00      0.2898415757E+00
          0                 3           2             4    7     1       0.1507807910E-03       4    7    1         0.8370519159E-02      0.2027568155E-01
          0                 4           1             4    7     1      -0.5992189550E-05       4    7    1        -0.3419248028E-03      0.8283145782E-03

    ------------------------------------------------
       NWT REQUIRED            4 OUTER ITERATIONS 
       AND A TOTAL OF          7 INNER ITERATIONS.
    ------------------------------------------------

 NO OUTPUT CONTROL FOR STRESS PERIOD   13   TIME STEP    1
 
 SOLVING FOR HEAD 
                                                   Max.-Head-Change                         Max.-Flux-Residual
  Residual-Control   Outer-Iter.   Inner-Iter.     Column Row Layer    Maximum-Head-Change  Column Row Layer    Maximum-Flux-Residual          L2-NORM 
          0                 1           2             4    7     1       0.2254511735E-01       4    7    1         0.1184264802E+01      0.2871762427E+01
          0                 2           2             4    7     1      -0.2191847404E-02       4    7    1        -0.1183628894E+00      0.2870430446E+00
          0                 3           2             4    7     1       0.1491442203E-03       4    7    1         0.8279149593E-02      0.2008026564E-01
          0                 4           1             4    7     1      -0.5927150285E-05       4    7    1        -0.3381924528E-03      0.8204322128E-03

    ------------------------------------------------
       NWT REQUIRED            4 OUTER ITERATIONS 
       AND A TOTAL OF          7 INNER ITERATIONS.
    ------------------------------------------------

 NO OUTPUT CONTROL FOR STRESS PERIOD   13   TIME STEP    2
 
 SOLVING FOR HEAD 
                                                   Max.-Head-Change                         Max.-Flux-Residual
  Residual-Control   Outer-Iter.   Inner-Iter.     Column Row Layer    Maximum-Head-Change  Column Row Layer    Maximum-Flux-Residual          L2-NORM 
          0                 1           2             4    7     1       0.2230185413E-01       4    7    1         0.1171416058E+01      0.2844002453E+01
          0                 2           2             4    7     1      -0.2168197071E-02       4    7    1        -0.1170786929E+00      0.2842710428E+00
          0                 3           2             4    7     1       0.1475349309E-03       4    7    1         0.8189323376E-02      0.1988658660E-01
          0                 4           1             4    7     1      -0.5863195176E-05       4    7    1        -0.3345231451E-03      0.8126181757E-03

    ------------------------------------------------
       NWT REQUIRED            4 OUTER ITERATIONS 
       AND A TOTAL OF          7 INNER ITERATIONS.
    ------------------------------------------------

 NO OUTPUT CONTROL FOR STRESS PERIOD   13   TIME STEP    3
 
 SOLVING FOR HEAD 
                                                   Max.-Head-Change                         Max.-Flux-Residual
  Residual-Control   Outer-Iter.   Inner-Iter.     Column Row Layer    Maximum-Head-Change  Column Row Layer    Maximum-Flux-Residual          L2-NORM 
          0                 1           2             4    7     1       0.2206245102E-01       4    7    1         0.1158773779E+01      0.2816697356E+01
          0                 2           2             4    7     1      -0.2144922026E-02       4    7    1        -0.1158151324E+00      0.2815443537E+00
          0                 3           2             4    7     1       0.1459511789E-03       4    7    1         0.8100940623E-02      0.1969611889E-01
          0                 4           1             4    7     1      -0.5800255147E-05       4    7    1        -0.3309128153E-03      0.8047815959E-03

    ------------------------------------------------
       NWT REQUIRED            4 OUTER ITERATIONS 
       AND A TOTAL OF          7 INNER ITERATIONS.
    ------------------------------------------------

 NO OUTPUT CONTROL FOR STRESS PERIOD   13   TIME STEP    4
 
 SOLVING FOR HEAD 
                                                   Max.-Head-Change                         Max.-Flux-Residual
  Residual-Control   Outer-Iter.   Inner-Iter.     Column Row Layer    Maximum-Head-Change  Column Row Layer    Maximum-Flux-Residual          L2-NORM 
          0                 1           2             4    7     1       0.2182692788E-01       4    7    1         0.1146338988E+01      0.2789825330E+01
          0                 2           2             4    7     1      -0.2122024203E-02       4    7    1        -0.1145723100E+00      0.2788605234E+00
          0                 3           2             4    7     1       0.1443930947E-03       4    7    1         0.8014008458E-02      0.1950843686E-01
          0                 4           1             4    7     1      -0.5738335149E-05       4    7    1        -0.3273617260E-03      0.7971223740E-03

    ------------------------------------------------
       NWT REQUIRED            4 OUTER ITERATIONS 
       AND A TOTAL OF          7 INNER ITERATIONS.
    ------------------------------------------------

 NO OUTPUT CONTROL FOR STRESS PERIOD   13   TIME STEP    5
 
 SOLVING FOR HEAD 
                                                   Max.-Head-Change                         Max.-Flux-Residual
  Residual-Control   Outer-Iter.   Inner-Iter.     Column Row Layer    Maximum-Head-Change  Column Row Layer    Maximum-Flux-Residual          L2-NORM 
          0                 1           2             4    7     1       0.2159503634E-01       4    7    1         0.1134098018E+01      0.2763375001E+01
          0                 2           2             4    7     1      -0.2099479451E-02       4    7    1        -0.1133488598E+00      0.2762185988E+00
          0                 3           2             4    7     1       0.1428590350E-03       4    7    1         0.7928431309E-02      0.1932384645E-01
          0                 4           1             4    7     1      -0.5677369328E-05       4    7    1        -0.3238659797E-03      0.7895724448E-03

    ------------------------------------------------
       NWT REQUIRED            4 OUTER ITERATIONS 
       AND A TOTAL OF          7 INNER ITERATIONS.
    ------------------------------------------------

 NO OUTPUT CONTROL FOR STRESS PERIOD   13   TIME STEP    6
 
 SOLVING FOR HEAD 
                                                   Max.-Head-Change                         Max.-Flux-Residual
  Residual-Control   Outer-Iter.   Inner-Iter.     Column Row Layer    Maximum-Head-Change  Column Row Layer    Maximum-Flux-Residual          L2-NORM 
          0                 1           2             4    7     1       0.2136667115E-01       4    7    1         0.1122045340E+01      0.2737330661E+01
          0                 2           2             4    7     1      -0.2077277540E-02       4    7    1        -0.1121442290E+00      0.2736170985E+00
          0                 3           2             4    7     1       0.1413483041E-03       4    7    1         0.7844170546E-02      0.1914201246E-01
          0                 4           1             4    7     1      -0.5617331205E-05       4    7    1        -0.3204240165E-03      0.7821500358E-03

    ------------------------------------------------
       NWT REQUIRED            4 OUTER ITERATIONS 
       AND A TOTAL OF          7 INNER ITERATIONS.
    ------------------------------------------------

 NO OUTPUT CONTROL FOR STRESS PERIOD   13   TIME STEP    7
 
 SOLVING FOR HEAD 
                                                   Max.-Head-Change                         Max.-Flux-Residual
  Residual-Control   Outer-Iter.   Inner-Iter.     Column Row Layer    Maximum-Head-Change  Column Row Layer    Maximum-Flux-Residual          L2-NORM 
          0                 1           2             4    7     1       0.2114200623E-01       4    7    1         0.1110190195E+01      0.2711686005E+01
          0                 2           2             4    7     1      -0.2055435379E-02       4    7    1        -0.1109593415E+00      0.2710515959E+00
          0                 3           2             4    7     1       0.1398620532E-03       4    7    1         0.7761290808E-02      0.1896264073E-01
          0                 4           1             4    7     1      -0.5558265796E-05       4    7    1        -0.3170384755E-03      0.7748386216E-03

    ------------------------------------------------
       NWT REQUIRED            4 OUTER ITERATIONS 
       AND A TOTAL OF          7 INNER ITERATIONS.
    ------------------------------------------------

 NO OUTPUT CONTROL FOR STRESS PERIOD   13   TIME STEP    8
 
 SOLVING FOR HEAD 
                                                   Max.-Head-Change                         Max.-Flux-Residual
  Residual-Control   Outer-Iter.   Inner-Iter.     Column Row Layer    Maximum-Head-Change  Column Row Layer    Maximum-Flux-Residual          L2-NORM 
          0                 1           2             4    7     1       0.2092066854E-01       4    7    1         0.1098512204E+01      0.2686423700E+01
          0                 2           2             4    7     1      -0.2033916696E-02       4    7    1        -0.1097921603E+00      0.2685319232E+00
          0                 3           2             4    7     1       0.1383978130E-03       4    7    1         0.7679649571E-02      0.1878656250E-01
          0                 4           1             4    7     1      -0.5500074780E-05       4    7    1        -0.3137035039E-03      0.7676933006E-03

    ------------------------------------------------
       NWT REQUIRED            4 OUTER ITERATIONS 
       AND A TOTAL OF          7 INNER ITERATIONS.
    ------------------------------------------------

 NO OUTPUT CONTROL FOR STRESS PERIOD   13   TIME STEP    9
 
 SOLVING FOR HEAD 
                                                   Max.-Head-Change                         Max.-Flux-Residual
  Residual-Control   Outer-Iter.   Inner-Iter.     Column Row Layer    Maximum-Head-Change  Column Row Layer    Maximum-Flux-Residual          L2-NORM 
          0                 1           2             4    7     1       0.2070256874E-01       4    7    1         0.1087006722E+01      0.2661526967E+01
          0                 2           2             4    7     1      -0.2012712809E-02       4    7    1        -0.1086422211E+00      0.2660444388E+00
          0                 3           2             4    7     1       0.1369549934E-03       4    7    1         0.7599214367E-02      0.1861266732E-01
          0                 4           1             4    7     1      -0.5442735709E-05       4    7    1        -0.3104178215E-03      0.7605638287E-03

    ------------------------------------------------
       NWT REQUIRED            4 OUTER ITERATIONS 
       AND A TOTAL OF          7 INNER ITERATIONS.
    ------------------------------------------------

 NO OUTPUT CONTROL FOR STRESS PERIOD   13   TIME STEP   10
 
 SOLVING FOR HEAD 
                                                   Max.-Head-Change                         Max.-Flux-Residual
  Residual-Control   Outer-Iter.   Inner-Iter.     Column Row Layer    Maximum-Head-Change  Column Row Layer    Maximum-Flux-Residual          L2-NORM 
          0                 1           2             4    7     1       0.2048789543E-01       4    7    1         0.1075683820E+01      0.2637010325E+01
          0                 2           2             4    7     1      -0.1991842052E-02       4    7    1        -0.1075105305E+00      0.2635949132E+00
          0                 3           2             4    7     1       0.1355348414E-03       4    7    1         0.7520055617E-02      0.1844137924E-01
          0                 4           1             4    7     1      -0.5386297051E-05       4    7    1        -0.3071842593E-03      0.7535730037E-03

    ------------------------------------------------
       NWT REQUIRED            4 OUTER ITERATIONS 
       AND A TOTAL OF          7 INNER ITERATIONS.
    ------------------------------------------------

 NO OUTPUT CONTROL FOR STRESS PERIOD   13   TIME STEP   11
 
 SOLVING FOR HEAD 
                                                   Max.-Head-Change                         Max.-Flux-Residual
  Residual-Control   Outer-Iter.   Inner-Iter.     Column Row Layer    Maximum-Head-Change  Column Row Layer    Maximum-Flux-Residual          L2-NORM 
          0                 1           2             4    7     1       0.2027628433E-01       4    7    1         0.1064523875E+01      0.2612829252E+01
          0                 2           2             4    7     1      -0.1971269009E-02       4    7    1        -0.1063951271E+00      0.2611787462E+00
          0                 3           2             4    7     1       0.1341349482E-03       4    7    1         0.7442036127E-02      0.1827244005E-01
          0                 4           1             4    7     1      -0.5330663941E-05       4    7    1        -0.3039972664E-03      0.7466714119E-03

    ------------------------------------------------
       NWT REQUIRED            4 OUTER ITERATIONS 
       AND A TOTAL OF          7 INNER ITERATIONS.
    ------------------------------------------------

 NO OUTPUT CONTROL FOR STRESS PERIOD   13   TIME STEP   12
 
 SOLVING FOR HEAD 
                                                   Max.-Head-Change                         Max.-Flux-Residual
  Residual-Control   Outer-Iter.   Inner-Iter.     Column Row Layer    Maximum-Head-Change  Column Row Layer    Maximum-Flux-Residual          L2-NORM 
          0                 1           2             4    7     1       0.2006779913E-01       4    7    1         0.1053530050E+01      0.2588996425E+01
          0                 2           2             4    7     1      -0.1950999873E-02       4    7    1        -0.1052963271E+00      0.2587973517E+00
          0                 3           2             4    7     1       0.1327557341E-03       4    7    1         0.7365178012E-02      0.1810592151E-01
          0                 4           1             4    7     1      -0.5275852496E-05       4    7    1        -0.3008577012E-03      0.7398664708E-03

    ------------------------------------------------
       NWT REQUIRED            4 OUTER ITERATIONS 
       AND A TOTAL OF          7 INNER ITERATIONS.
    ------------------------------------------------

 NO OUTPUT CONTROL FOR STRESS PERIOD   13   TIME STEP   13
 
 SOLVING FOR HEAD 
                                                   Max.-Head-Change                         Max.-Flux-Residual
  Residual-Control   Outer-Iter.   Inner-Iter.     Column Row Layer    Maximum-Head-Change  Column Row Layer    Maximum-Flux-Residual          L2-NORM 
          0                 1           2             4    7     1       0.1986235916E-01       4    7    1         0.1042698298E+01      0.2565504715E+01
          0                 2           2             4    7     1      -0.1931026799E-02       4    7    1        -0.1042137260E+00      0.2564499724E+00
          0                 3           2             4    7     1       0.1313966654E-03       4    7    1         0.7289452969E-02      0.1794180663E-01
          0                 4           1             4    7     1      -0.5221841303E-05       4    7    1        -0.2977644021E-03      0.7331909561E-03

    ------------------------------------------------
       NWT REQUIRED            4 OUTER ITERATIONS 
       AND A TOTAL OF          7 INNER ITERATIONS.
    ------------------------------------------------

 NO OUTPUT CONTROL FOR STRESS PERIOD   13   TIME STEP   14
 
 SOLVING FOR HEAD 
                                                   Max.-Head-Change                         Max.-Flux-Residual
  Residual-Control   Outer-Iter.   Inner-Iter.     Column Row Layer    Maximum-Head-Change  Column Row Layer    Maximum-Flux-Residual          L2-NORM 
          0                 1           2             4    7     1       0.1965989114E-01       4    7    1         0.1032024435E+01      0.2542337157E+01
          0                 2           2             4    7     1      -0.1911342664E-02       4    7    1        -0.1031469058E+00      0.2541348222E+00
          0                 3           2             4    7     1       0.1300572578E-03       4    7    1         0.7214831737E-02      0.1777983930E-01
          0                 4           1             4    7     1      -0.5168611942E-05       4    7    1        -0.2947162245E-03      0.7264833803E-03

    ------------------------------------------------
       NWT REQUIRED            4 OUTER ITERATIONS 
       AND A TOTAL OF          7 INNER ITERATIONS.
    ------------------------------------------------

 NO OUTPUT CONTROL FOR STRESS PERIOD   13   TIME STEP   15
 
 SOLVING FOR HEAD 
                                                   Max.-Head-Change                         Max.-Flux-Residual
  Residual-Control   Outer-Iter.   Inner-Iter.     Column Row Layer    Maximum-Head-Change  Column Row Layer    Maximum-Flux-Residual          L2-NORM 
          0                 1           2             4    7     1       0.1946018848E-01       4    7    1         0.1021497310E+01      0.2519487337E+01
          0                 2           2             4    7     1      -0.1891927383E-02       4    7    1        -0.1020947517E+00      0.2518513784E+00
          0                 3           2             4    7     1       0.1287361443E-03       4    7    1         0.7141236387E-02      0.1762018364E-01
          0                 4           1             4    7     1      -0.5116109036E-05       4    7    1        -0.2917099198E-03      0.7200309094E-03

    ------------------------------------------------
       NWT REQUIRED            4 OUTER ITERATIONS 
       AND A TOTAL OF          7 INNER ITERATIONS.
    ------------------------------------------------

 NO OUTPUT CONTROL FOR STRESS PERIOD   13   TIME STEP   16
 
 SOLVING FOR HEAD 
                                                   Max.-Head-Change                         Max.-Flux-Residual
  Residual-Control   Outer-Iter.   Inner-Iter.     Column Row Layer    Maximum-Head-Change  Column Row Layer    Maximum-Flux-Residual          L2-NORM 
          0                 1           2             4    7     1       0.1926345978E-01       4    7    1         0.1011128269E+01      0.2496953708E+01
          0                 2           2             4    7     1      -0.1872801236E-02       4    7    1        -0.1010583977E+00      0.2495995708E+00
          0                 3           2             4    7     1       0.1274347052E-03       4    7    1         0.7068746212E-02      0.1746268482E-01
          0                 4           1             4    7     1      -0.5064388653E-05       4    7    1        -0.2887487904E-03      0.7136289275E-03

    ------------------------------------------------
       NWT REQUIRED            4 OUTER ITERATIONS 
       AND A TOTAL OF          7 INNER ITERATIONS.
    ------------------------------------------------

 NO OUTPUT CONTROL FOR STRESS PERIOD   13   TIME STEP   17
 
 SOLVING FOR HEAD 
                                                   Max.-Head-Change                         Max.-Flux-Residual
  Residual-Control   Outer-Iter.   Inner-Iter.     Column Row Layer    Maximum-Head-Change  Column Row Layer    Maximum-Flux-Residual          L2-NORM 
          0                 1           2             4    7     1       0.1906949493E-01       4    7    1         0.1000906070E+01      0.2474730697E+01
          0                 2           2             4    7     1      -0.1853943796E-02       4    7    1        -0.1000367204E+00      0.2473786451E+00
          0                 3           2             4    7     1       0.1261515504E-03       4    7    1         0.6997282643E-02      0.1730741673E-01
          0                 4           1             4    7     1      -0.5013394494E-05       4    7    1        -0.2858295938E-03      0.7077077760E-03

    ------------------------------------------------
       NWT REQUIRED            4 OUTER ITERATIONS 
       AND A TOTAL OF          7 INNER ITERATIONS.
    ------------------------------------------------

 NO OUTPUT CONTROL FOR STRESS PERIOD   13   TIME STEP   18
 
 SOLVING FOR HEAD 
                                                   Max.-Head-Change                         Max.-Flux-Residual
  Residual-Control   Outer-Iter.   Inner-Iter.     Column Row Layer    Maximum-Head-Change  Column Row Layer    Maximum-Flux-Residual          L2-NORM 
          0                 1           2             4    7     1       0.1887823609E-01       4    7    1         0.9908271718E+00      0.2452802717E+01
          0                 2           2             4    7     1      -0.1835349438E-02       4    7    1        -0.9902936571E-01      0.2451872266E+00
          0                 3           2             4    7     1       0.1248862966E-03       4    7    1         0.6926820898E-02      0.1715406620E-01
          0                 4           1             4    7     1      -0.4963111824E-05       4    7    1        -0.2829512932E-03      0.7009823929E-03

    ------------------------------------------------
       NWT REQUIRED            4 OUTER ITERATIONS 
       AND A TOTAL OF          7 INNER ITERATIONS.
    ------------------------------------------------

 NO OUTPUT CONTROL FOR STRESS PERIOD   13   TIME STEP   19
 
 SOLVING FOR HEAD 
                                                   Max.-Head-Change                         Max.-Flux-Residual
  Residual-Control   Outer-Iter.   Inner-Iter.     Column Row Layer    Maximum-Head-Change  Column Row Layer    Maximum-Flux-Residual          L2-NORM 
          0                 1           2             4    7     1       0.1868962187E-01       4    7    1         0.9808885753E+00      0.2431171053E+01
          0                 2           2             4    7     1      -0.1817012194E-02       4    7    1        -0.9803603389E-01      0.2430253347E+00
          0                 3           2             4    7     1       0.1236385384E-03       4    7    1         0.6857340023E-02      0.1700285474E-01
          0                 4           1             4    7     1      -0.4913524524E-05       4    7    1        -0.2801130747E-03      0.6948027707E-03

    ------------------------------------------------
       NWT REQUIRED            4 OUTER ITERATIONS 
       AND A TOTAL OF          7 INNER ITERATIONS.
    ------------------------------------------------

 NO OUTPUT CONTROL FOR STRESS PERIOD   13   TIME STEP   20
 
 SOLVING FOR HEAD 
                                                   Max.-Head-Change                         Max.-Flux-Residual
  Residual-Control   Outer-Iter.   Inner-Iter.     Column Row Layer    Maximum-Head-Change  Column Row Layer    Maximum-Flux-Residual          L2-NORM 
          0                 1           2             4    7     1       0.1850372852E-01       4    7    1         0.9710944511E+00      0.2409833708E+01
          0                 2           2             4    7     1      -0.1798939478E-02       4    7    1        -0.9705714177E-01      0.2408928939E+00
          0                 3           2             4    7     1       0.1224087802E-03       4    7    1         0.6788869162E-02      0.1685372675E-01
          0                 4           1             4    7     1      -0.4864652512E-05       4    7    1        -0.2773161241E-03      0.6887296766E-03

    ------------------------------------------------
       NWT REQUIRED            4 OUTER ITERATIONS 
       AND A TOTAL OF          7 INNER ITERATIONS.
    ------------------------------------------------

 NO OUTPUT CONTROL FOR STRESS PERIOD   13   TIME STEP   21
 
 SOLVING FOR HEAD 
                                                   Max.-Head-Change                         Max.-Flux-Residual
  Residual-Control   Outer-Iter.   Inner-Iter.     Column Row Layer    Maximum-Head-Change  Column Row Layer    Maximum-Flux-Residual          L2-NORM 
          0                 1           2             4    7     1       0.1832022560E-01       4    7    1         0.9614266917E+00      0.2388773915E+01
          0                 2           2             4    7     1      -0.1781099165E-02       4    7    1        -0.9609087955E-01      0.2387880961E+00
          0                 3           2             4    7     1       0.1211948355E-03       4    7    1         0.6721281734E-02      0.1670652179E-01
          0                 4           1             4    7     1      -0.4816408982E-05       4    7    1        -0.2745552476E-03      0.6827132422E-03

    ------------------------------------------------
       NWT REQUIRED            4 OUTER ITERATIONS 
       AND A TOTAL OF          7 INNER ITERATIONS.
    ------------------------------------------------

 NO OUTPUT CONTROL FOR STRESS PERIOD   13   TIME STEP   22
 
 SOLVING FOR HEAD 
                                                   Max.-Head-Change                         Max.-Flux-Residual
  Residual-Control   Outer-Iter.   Inner-Iter.     Column Row Layer    Maximum-Head-Change  Column Row Layer    Maximum-Flux-Residual          L2-NORM 
          0                 1           2             4    7     1       0.1813933637E-01       4    7    1         0.9518975803E+00      0.2367997215E+01
          0                 2           2             4    7     1      -0.1763512958E-02       4    7    1        -0.9513847491E-01      0.2367116092E+00
          0                 3           2             4    7     1       0.1199981822E-03       4    7    1         0.6654663622E-02      0.1656128841E-01
          0                 4           1             4    7     1      -0.4768852418E-05       4    7    1        -0.2718339842E-03      0.6767800867E-03

    ------------------------------------------------
       NWT REQUIRED            4 OUTER ITERATIONS 
       AND A TOTAL OF          7 INNER ITERATIONS.
    ------------------------------------------------

 NO OUTPUT CONTROL FOR STRESS PERIOD   13   TIME STEP   23
 
 SOLVING FOR HEAD 
                                                   Max.-Head-Change                         Max.-Flux-Residual
  Residual-Control   Outer-Iter.   Inner-Iter.     Column Row Layer    Maximum-Head-Change  Column Row Layer    Maximum-Flux-Residual          L2-NORM 
          0                 1           2             4    7     1       0.1796100219E-01       4    7    1         0.9425039840E+00      0.2347495818E+01
          0                 2           2             4    7     1      -0.1746175157E-02       4    7    1        -0.9419961472E-01      0.2346626062E+00
          0                 3           2             4    7     1       0.1188184312E-03       4    7    1         0.6588992899E-02      0.1641795413E-01
          0                 4           1             4    7     1      -0.4721967969E-05       4    7    1        -0.2691514051E-03      0.6709249325E-03

    ------------------------------------------------
       NWT REQUIRED            4 OUTER ITERATIONS 
       AND A TOTAL OF          7 INNER ITERATIONS.
    ------------------------------------------------

 NO OUTPUT CONTROL FOR STRESS PERIOD   13   TIME STEP   24
 
 SOLVING FOR HEAD 
                                                   Max.-Head-Change                         Max.-Flux-Residual
  Residual-Control   Outer-Iter.   Inner-Iter.     Column Row Layer    Maximum-Head-Change  Column Row Layer    Maximum-Flux-Residual          L2-NORM 
          0                 1           2             4    7     1       0.1778489748E-01       4    7    1         0.9332281533E+00      0.2327253110E+01
          0                 2           2             4    7     1      -0.1729054043E-02       4    7    1        -0.9327252492E-01      0.2326404591E+00
          0                 3           1             4    7     1       0.1176533640E-03       4    7    1         0.6524145491E-02      0.1627225538E-01
          0                 4           1             4    7     1      -0.4675669290E-05       4    7    1        -0.2665024754E-03      0.6649872110E-03

    ------------------------------------------------
       NWT REQUIRED            4 OUTER ITERATIONS 
       AND A TOTAL OF          6 INNER ITERATIONS.
    ------------------------------------------------

 NO OUTPUT CONTROL FOR STRESS PERIOD   13   TIME STEP   25
 
 SOLVING FOR HEAD 
                                                   Max.-Head-Change                         Max.-Flux-Residual
  Residual-Control   Outer-Iter.   Inner-Iter.     Column Row Layer    Maximum-Head-Change  Column Row Layer    Maximum-Flux-Residual          L2-NORM 
          0                 1           2             4    7     1       0.1761125118E-01       4    7    1         0.9240826262E+00      0.2307273205E+01
          0                 2           2             4    7     1      -0.1712172829E-02       4    7    1        -0.9235845871E-01      0.2306930802E+00
          0                 3           1             4    7     1       0.1165047449E-03       4    7    1         0.6460209037E-02      0.1614028972E-01
          0                 4           1             4    7     1      -0.4630022002E-05       4    7    1        -0.2638907386E-03      0.6595992105E-03

    ------------------------------------------------
       NWT REQUIRED            4 OUTER ITERATIONS 
       AND A TOTAL OF          6 INNER ITERATIONS.
    ------------------------------------------------

 NO OUTPUT CONTROL FOR STRESS PERIOD   13   TIME STEP   26
 
 SOLVING FOR HEAD 
                                                   Max.-Head-Change                         Max.-Flux-Residual
  Residual-Control   Outer-Iter.   Inner-Iter.     Column Row Layer    Maximum-Head-Change  Column Row Layer    Maximum-Flux-Residual          L2-NORM 
          0                 1           2             4    7     1       0.1743987360E-01       4    7    1         0.9150571680E+00      0.2287513183E+01
          0                 2           2             4    7     1      -0.1695510602E-02       4    7    1        -0.9145639313E-01      0.2286674718E+00
          0                 3           1             4    7     1       0.1153709636E-03       4    7    1         0.6397112013E-02      0.1599859423E-01
          0                 4           1             4    7     1      -0.4584964168E-05       4    7    1        -0.2613133022E-03      0.6538119191E-03

    ------------------------------------------------
       NWT REQUIRED            4 OUTER ITERATIONS 
       AND A TOTAL OF          6 INNER ITERATIONS.
    ------------------------------------------------

 NO OUTPUT CONTROL FOR STRESS PERIOD   13   TIME STEP   27
 
 SOLVING FOR HEAD 
                                                   Max.-Head-Change                         Max.-Flux-Residual
  Residual-Control   Outer-Iter.   Inner-Iter.     Column Row Layer    Maximum-Head-Change  Column Row Layer    Maximum-Flux-Residual          L2-NORM 
          0                 1           2             4    7     1       0.1727085723E-01       4    7    1         0.9061567751E+00      0.2268004934E+01
          0                 2           2             4    7     1      -0.1679078693E-02       4    7    1        -0.9056682751E-01      0.2267176342E+00
          0                 3           1             4    7     1       0.1142528539E-03       4    7    1         0.6334889305E-02      0.1586217462E-01
          0                 4           1             4    7     1      -0.4540528944E-05       4    7    1        -0.2587715744E-03      0.6482107735E-03

    ------------------------------------------------
       NWT REQUIRED            4 OUTER ITERATIONS 
       AND A TOTAL OF          6 INNER ITERATIONS.
    ------------------------------------------------

 NO OUTPUT CONTROL FOR STRESS PERIOD   13   TIME STEP   28
 
 SOLVING FOR HEAD 
                                                   Max.-Head-Change                         Max.-Flux-Residual
  Residual-Control   Outer-Iter.   Inner-Iter.     Column Row Layer    Maximum-Head-Change  Column Row Layer    Maximum-Flux-Residual          L2-NORM 
          0                 1           2             4    7     1       0.1710401541E-01       4    7    1         0.8973714112E+00      0.2248742640E+01
          0                 2           2             4    7     1      -0.1662858198E-02       4    7    1        -0.8968875879E-01      0.2247923943E+00
          0                 3           1             4    7     1       0.1131491305E-03       4    7    1         0.6273470802E-02      0.1572753313E-01
          0                 4           1             4    7     1      -0.4496666134E-05       4    7    1        -0.2562627101E-03      0.6427031049E-03

    ------------------------------------------------
       NWT REQUIRED            4 OUTER ITERATIONS 
       AND A TOTAL OF          6 INNER ITERATIONS.
    ------------------------------------------------

 NO OUTPUT CONTROL FOR STRESS PERIOD   13   TIME STEP   29
 
 SOLVING FOR HEAD 
                                                   Max.-Head-Change                         Max.-Flux-Residual
  Residual-Control   Outer-Iter.   Inner-Iter.     Column Row Layer    Maximum-Head-Change  Column Row Layer    Maximum-Flux-Residual          L2-NORM 
          0                 1           2             4    7     1       0.1693944275E-01       4    7    1         0.8887061497E+00      0.2229729333E+01
          0                 2           2             4    7     1      -0.1646858313E-02       4    7    1        -0.8882269403E-01      0.2228920057E+00
          0                 3           1             4    7     1       0.1120604183E-03       4    7    1         0.6212891942E-02      0.1559457529E-01
          0                 4           1             4    7     1      -0.4453399685E-05       4    7    1        -0.2537881448E-03      0.6372762947E-03

    ------------------------------------------------
       NWT REQUIRED            4 OUTER ITERATIONS 
       AND A TOTAL OF          6 INNER ITERATIONS.
    ------------------------------------------------

 NO OUTPUT CONTROL FOR STRESS PERIOD   13   TIME STEP   30



 STREAM LISTING     PERIOD     13   STEP       30

 LAYER ROW COL. STREAM  RCH.  FLOW INTO     FLOW TO   FLOW OUT OF   OVRLND.     DIRECT     STREAM       STREAM     STREAM     STREAM   STREAMBED  STREAMBED
                SEG.NO.  NO.  STRM. RCH.    AQUIFER    STRM. RCH.    RUNOFF     PRECIP       ET          HEAD       DEPTH      WIDTH   CONDCTNC.   GRADIENT

   1    1    1     1     1    2.3000E+01  2.3574E-01   2.2764E+01  0.000E+00  0.000E+00  0.000E+00  1.09420E+03  1.148E+00  1.263E+01  5.684E-02  1.383E+00
   1    2    2     1     2    2.2764E+01  3.6445E-01   2.2400E+01  0.000E+00  0.000E+00  0.000E+00  1.08920E+03  1.143E+00  1.257E+01  8.797E-02  1.381E+00
   1    3    3     1     3    2.2400E+01  3.1019E-01   2.2089E+01  0.000E+00  0.000E+00  0.000E+00  1.08356E+03  1.138E+00  1.250E+01  7.497E-02  1.379E+00
   1    3    4     1     4    2.2089E+01  2.8513E-01   2.1804E+01  0.000E+00  0.000E+00  0.000E+00  1.07854E+03  1.133E+00  1.243E+01  6.899E-02  1.378E+00
   1    4    5     2     1    1.9804E+01  3.1551E-01   1.9489E+01  0.000E+00  0.000E+00  0.000E+00  1.07298E+03  1.045E+00  1.200E+01  7.800E-02  1.348E+00
   1    5    6     2     2    1.9489E+01  2.4216E-01   1.9247E+01  0.000E+00  0.000E+00  0.000E+00  1.06755E+03  1.036E+00  1.200E+01  6.000E-02  1.345E+00
   1    6    6     2     3    1.9247E+01  2.4170E-01   1.9005E+01  0.000E+00  0.000E+00  0.000E+00  1.06282E+03  1.028E+00  1.200E+01  6.000E-02  1.343E+00
   1    7    6     2     4    1.9005E+01  2.4123E-01   1.8764E+01  0.000E+00  0.000E+00  0.000E+00  1.05810E+03  1.020E+00  1.200E+01  6.000E-02  1.340E+00
   1    8    6     2     5    1.8764E+01  2.4076E-01   1.8523E+01  0.000E+00  0.000E+00  0.000E+00  1.05337E+03  1.013E+00  1.200E+01  6.000E-02  1.338E+00
   1    3    5     3     1    2.0000E+00  2.8252E-01   1.7175E+00  0.000E+00  0.000E+00  0.000E+00  1.07555E+03  1.909E+00  9.636E+00  7.227E-02  1.955E+00
   1    3    6     3     2    1.7175E+00  2.4905E-01   1.4684E+00  0.000E+00  0.000E+00  0.000E+00  1.07264E+03  1.727E+00  8.909E+00  6.682E-02  1.864E+00
   1    3    7     3     3    1.4684E+00  1.9718E-01   1.2712E+00  0.000E+00  0.000E+00  0.000E+00  1.06987E+03  1.555E+00  8.218E+00  5.547E-02  1.777E+00
   1    4    8     3     4    1.2712E+00  2.2567E-01   1.0456E+00  0.000E+00  0.000E+00  0.000E+00  1.06682E+03  1.364E+00  7.455E+00  6.709E-02  1.682E+00
   1    5    8     3     5    1.0456E+00  1.5790E-01   8.8768E-01  0.000E+00  0.000E+00  0.000E+00  1.06362E+03  1.164E+00  6.655E+00  4.991E-02  1.582E+00
   1    6    8     3     6    8.8768E-01  5.5980E-02   8.3170E-01  0.000E+00  0.000E+00  0.000E+00  1.06158E+03  1.036E+00  6.145E+00  1.844E-02  1.518E+00
   1    5   10     4     1    1.0000E+01  9.0919E-02   9.9091E+00  0.000E+00  0.000E+00  0.000E+00  1.07836E+03  6.368E-01  1.000E+01  2.500E-02  1.212E+00
   1    5    9     4     2    9.9091E+00  1.8158E-01   9.7275E+00  0.000E+00  0.000E+00  0.000E+00  1.07154E+03  6.315E-01  1.000E+01  5.000E-02  1.211E+00
   1    6    8     4     3    9.7275E+00  1.2689E-01   9.6006E+00  0.000E+00  0.000E+00  0.000E+00  1.06381E+03  6.256E-01  1.000E+01  3.500E-02  1.209E+00
   1    6    8     5     1    1.0432E+01  2.2686E-01   1.0205E+01  0.000E+00  0.000E+00  0.000E+00  1.05868E+03  6.790E-01  1.542E+01  6.166E-02  1.226E+00
   1    7    7     5     2    1.0205E+01  2.7894E-01   9.9265E+00  0.000E+00  0.000E+00  0.000E+00  1.05417E+03  6.732E-01  1.519E+01  7.594E-02  1.224E+00
   1    8    7     5     3    9.9265E+00  1.9221E-01   9.7343E+00  0.000E+00  0.000E+00  0.000E+00  1.04992E+03  6.676E-01  1.497E+01  5.241E-02  1.223E+00
   1    8    6     5     4    9.7343E+00  1.3577E-01   9.5985E+00  0.000E+00  0.000E+00  0.000E+00  1.04691E+03  6.637E-01  1.482E+01  3.706E-02  1.221E+00
   1    9    6     6     1    2.8121E+01  2.5841E-01   2.7863E+01  0.000E+00  0.000E+00  0.000E+00  1.04403E+03  1.307E+00  1.200E+01  6.000E-02  1.436E+00
   1   10    7     6     2    2.7863E+01  2.5797E-01   2.7605E+01  0.000E+00  0.000E+00  0.000E+00  1.03948E+03  1.300E+00  1.200E+01  6.000E-02  1.433E+00
   1   11    7     6     3    2.7605E+01  2.5753E-01   2.7348E+01  0.000E+00  0.000E+00  0.000E+00  1.03493E+03  1.292E+00  1.200E+01  6.000E-02  1.431E+00
   1   12    7     6     4    2.7348E+01  2.5710E-01   2.7090E+01  0.000E+00  0.000E+00  0.000E+00  1.03038E+03  1.285E+00  1.200E+01  6.000E-02  1.428E+00
   1   13    7     6     5    2.7090E+01  5.4744E-04   2.7090E+01  0.000E+00  0.000E+00  0.000E+00  1.02719E+03  1.281E+00  1.200E+01  2.400E-02  7.603E-03
   1   14    9     7     1    1.5000E+02  1.3296E+00   1.4867E+02  0.000E+00  0.000E+00  0.000E+00  1.03987E+03  2.288E+00  5.529E+01  5.593E-01  7.924E-01
   1   13    8     7     2    1.4867E+02  1.8014E+00   1.4687E+02  0.000E+00  0.000E+00  0.000E+00  1.03478E+03  2.279E+00  5.526E+01  6.148E-01  9.767E-01
   1   13    7     7     3    1.4687E+02  1.4088E+00   1.4546E+02  0.000E+00  0.000E+00  0.000E+00  1.02969E+03  2.271E+00  5.522E+01  5.585E-01  8.409E-01
   1   13    6     8     1    1.7255E+02  8.7781E-01   1.7167E+02  0.000E+00  0.000E+00  0.000E+00  1.02484E+03  2.966E+00  4.301E+01  4.382E-01  6.677E-01
   1   13    5     8     2    1.7167E+02  1.4038E-01   1.7153E+02  0.000E+00  0.000E+00  0.000E+00  1.01859E+03  2.963E+00  4.296E+01  4.378E-01  1.069E-01
   1   13    4     8     3    1.7153E+02 -2.5376E+00   1.7407E+02  0.000E+00  0.000E+00  0.000E+00  1.01235E+03  2.970E+00  4.307E+01  4.389E+00 -1.927E-01
   1   13    3     8     4    1.7407E+02 -3.7168E+00   1.7779E+02  0.000E+00  0.000E+00  0.000E+00  1.00612E+03  2.990E+00  4.336E+01  4.419E+00 -2.804E-01
   1   13    2     8     5    1.7779E+02 -2.6038E+00   1.8039E+02  0.000E+00  0.000E+00  0.000E+00  9.99885E+02  3.010E+00  4.365E+01  4.448E+00 -1.951E-01
   1   13    1     8     6    1.8039E+02 -2.0003E+00   1.8239E+02  0.000E+00  0.000E+00  0.000E+00  9.94900E+02  3.025E+00  4.386E+01  2.682E+00 -2.486E-01





UNSATURATED ZONE PACKAGE VOLUMETRIC BUDGET FOR  TIME STEP    30 STRESS PERIOD   13
  ------------------------------------------------------------------------------



     CUMULATIVE VOLUMES      L**3       RATES FOR THIS TIME STEP      L**3/T
     ------------------                 ------------------------

           IN:                                      IN:
           ---                                      ---
        INFILTRATION =   502665195.2996          INFILTRATION =           0.8475

          OUT:                                     OUT:
          ----                                     ----
              UZF ET =   430056089.4765                UZF ET =           0.7500
        UZF RECHARGE =    72023454.3827          UZF RECHARGE =           0.0002

            IN - OUT =      585651.4404              IN - OUT =       9.7287E-02

          STORAGE:                                 STORAGE:
          --------                                 --------
      STORAGE CHANGE =      585645.3820        STORAGE CHANGE =       9.7287E-02

 PERCENT DISCREPANCY IS DIFFERENCE BETWEEN IN-OUT MINUS CHANGE IN STORAGE
 DIVIDED BY THE AVERAGE OF IN AND OUT TIMES 100

 PERCENT DISCREPANCY =           0.00     PERCENT DISCREPANCY =           0.00






1
  VOLUMETRIC BUDGET FOR AGRICULTURAL FIELDS AT  END OF TIME STEP   30, STRESS PERIOD  13
  ------------------------------------------------------------------------------

     CUMULATIVE VOLUMES      L**3       RATES FOR THIS TIME STEP      L**3/T
     ------------------                 ------------------------

           IN:                                      IN:
           ---                                      ---
           AG WELLS      =   475844416.0000             AG WELLS      =           0.0000
      DIVERSION SEGMENTS =           0.0000        DIVERSION SEGMENTS =           0.0000
           GW IRRIGATION =           0.0000             GW IRRIGATION =           0.0000
           SW IRRIGATION =           0.0000             SW IRRIGATION =           0.0000
        SYSTEM LOSSES GW =           0.0000          SYSTEM LOSSES GW =           0.0000
        SYSTEM LOSSES SW =           0.0000          SYSTEM LOSSES SW =           0.0000

                TOTAL IN =   475844416.0000                  TOTAL IN =           0.0000

          OUT:                                     OUT:
          ----                                     ----
           AG WELLS      =           0.0000             AG WELLS      =           0.0000
      DIVERSION SEGMENTS =           0.0000        DIVERSION SEGMENTS =           0.0000
           GW IRRIGATION =   475844416.0000             GW IRRIGATION =           0.0000
           SW IRRIGATION =           0.0000             SW IRRIGATION =           0.0000
        SYSTEM LOSSES GW =           0.0000          SYSTEM LOSSES GW =           0.0000
        SYSTEM LOSSES SW =           0.0000          SYSTEM LOSSES SW =           0.0000

               TOTAL OUT =   475844416.0000                 TOTAL OUT =           0.0000

                IN - OUT =           0.0000                  IN - OUT =           0.0000

     PERCENT DISCREPANCY =           0.00         PERCENT DISCREPANCY =           0.00



1
  VOLUMETRIC BUDGET FOR ENTIRE MODEL AT END OF TIME STEP   30, STRESS PERIOD  13
  ------------------------------------------------------------------------------

     CUMULATIVE VOLUMES      L**3       RATES FOR THIS TIME STEP      L**3/T
     ------------------                 ------------------------

           IN:                                      IN:
           ---                                      ---
             STORAGE     =   595671104.0000               STORAGE     =           6.8210
       CONSTANT HEAD     =           0.0000         CONSTANT HEAD     =           0.0000
     HEAD DEP BOUNDS     =     9032909.0000       HEAD DEP BOUNDS     =           0.2853
      STREAM LEAKAGE     =   394526528.0000        STREAM LEAKAGE     =          11.4679
        UZF RECHARGE     =    72023456.0000          UZF RECHARGE     =       2.1308E-04
               GW ET     =           0.0000                 GW ET     =           0.0000
     SURFACE LEAKAGE     =           0.0000       SURFACE LEAKAGE     =           0.0000
           AG WELLS      =           0.0000             AG WELLS      =           0.0000

                TOTAL IN =  1071254016.0000                  TOTAL IN =          18.5744

          OUT:                                     OUT:
          ----                                     ----
             STORAGE     =   243834496.0000               STORAGE     =           7.4255
       CONSTANT HEAD     =           0.0000         CONSTANT HEAD     =           0.0000
     HEAD DEP BOUNDS     =     9325059.0000       HEAD DEP BOUNDS     =           0.2905
      STREAM LEAKAGE     =   328497888.0000        STREAM LEAKAGE     =          10.8584
        UZF RECHARGE     =           0.0000          UZF RECHARGE     =           0.0000
               GW ET     =    13750699.0000                 GW ET     =           0.0000
     SURFACE LEAKAGE     =           0.0000       SURFACE LEAKAGE     =           0.0000
           AG WELLS      =   475844416.0000             AG WELLS      =           0.0000

               TOTAL OUT =  1071252608.0000                 TOTAL OUT =          18.5744

                IN - OUT =        1408.0000                  IN - OUT =       5.7220E-06

     PERCENT DISCREPANCY =           0.00         PERCENT DISCREPANCY =           0.00






         TIME SUMMARY AT END OF TIME STEP   30 IN STRESS PERIOD   13
                    SECONDS     MINUTES      HOURS       DAYS        YEARS
                    -----------------------------------------------------------
   TIME STEP LENGTH  87667.      1461.1      24.352      1.0147     2.77799E-03
 STRESS PERIOD TIME 2.63000E+06  43833.      730.56      30.440     8.33397E-02
         TOTAL TIME 3.16463E+07 5.27439E+05  8790.6      366.28      1.0028    
1
1
                            STRESS PERIOD NO.   14, LENGTH =   2630000.    
                            -----------------------------------------------

                              NUMBER OF TIME STEPS =    30

                               MULTIPLIER FOR DELT =     1.000

                            INITIAL TIME STEP SIZE =   87666.66    

 REUSING NON-PARAMETER GHB CELLS FROM LAST STRESS PERIOD

      2 GHB CELLS

 REUSING STREAM SEGMENT DATA FROM LAST STRESS PERIOD



            AREAL INFILTRATION RATE
 READING ON UNIT   19 WITH FORMAT: (FREE)              

            1           2           3           4           5           6           7           8           9          10
 ........................................................................................................................
   1   1.0000E-10  2.0000E-10   0.000       0.000       0.000       0.000       0.000       0.000       0.000       0.000    
   2   2.0000E-10  1.0000E-10  2.0000E-10   0.000       0.000      8.0000E-10  8.0000E-10  5.0000E-10   0.000       0.000    
   3    0.000      5.0000E-10  1.0000E-10  1.0000E-10  8.0000E-10  8.0000E-10  5.0000E-10  5.0000E-10   0.000       0.000    
   4   8.0000E-10  5.0000E-10  1.0000E-10  1.0000E-10  1.0000E-10  1.0000E-10  1.0000E-10  1.0000E-10  2.0000E-10   0.000    
   5   8.0000E-10  5.0000E-10  1.0000E-10  1.0000E-10  1.0000E-10  1.0000E-10  1.0000E-10  1.0000E-10  1.0000E-10  1.0000E-10
   6   8.0000E-10  5.0000E-10  5.0000E-10  2.0000E-10  2.0000E-10  1.0000E-10  1.0000E-10  1.0000E-10  1.0000E-10  5.0000E-10
   7   8.0000E-10  5.0000E-10  5.0000E-10  2.0000E-10  2.0000E-10  1.0000E-10  1.0000E-10  2.0000E-10  2.0000E-10   0.000    
   8    0.000      5.0000E-10  5.0000E-10  2.0000E-10  2.0000E-10  1.0000E-10  1.0000E-10  2.0000E-10  5.0000E-10   0.000    
   9    0.000      5.0000E-10  5.0000E-10  2.0000E-10  2.0000E-10  1.0000E-10  1.0000E-10  2.0000E-10  5.0000E-10   0.000    
  10    0.000      5.0000E-10  5.0000E-10  2.0000E-10  2.0000E-10  1.0000E-10  1.0000E-10  2.0000E-10  5.0000E-10  8.0000E-10
  11    0.000      1.0000E-10  1.0000E-10  1.0000E-10  1.0000E-10  1.0000E-10  1.0000E-10  2.0000E-10  5.0000E-10   0.000    
  12   1.0000E-10  1.0000E-10  1.0000E-10  1.0000E-10  1.0000E-10  1.0000E-10  1.0000E-10  1.0000E-10  2.0000E-10   0.000    
  13   1.0000E-10  1.0000E-10  2.0000E-10  2.0000E-10  2.0000E-10  2.0000E-10  2.0000E-10  1.0000E-10  1.0000E-10   0.000    
  14    0.000      2.0000E-10  5.0000E-10  5.0000E-10  5.0000E-10  5.0000E-10  5.0000E-10  2.0000E-10  1.0000E-10   0.000    
  15    0.000       0.000      8.0000E-10  8.0000E-10  8.0000E-10  8.0000E-10   0.000       0.000       0.000       0.000    

                  ET RATE =  5.000000E-10

 USING ET EXTINCTION DEPTH FROM PREVIOUS STRESS PERIOD. CURRENT PERIOD IS:      14

 USING EXTINCTION WATER CONTENT FROM PREVIOUS STRESS PERIOD. CURRENT PERIOD IS:      14

 USING AIR ENTRY PRESSURE FROM PREVIOUS STRESS PERIOD. CURRENT PERIOD IS:      14

 USING ROOT PRESSURE HEAD FROM PREVIOUS STRESS PERIOD. CURRENT PERIOD IS:      14

 USING ROOT ACTIVITY FROM PREVIOUS STRESS PERIOD. CURRENT PERIOD IS:      14

 PROCESSING AG STRESS PERIOD DATA

 READING AG STRESS PERIOD DATA

 READING IRRIGATION WELL

 END PROCESSING AG STRESS PERIOD DATA OPTIONS
 
 SOLVING FOR HEAD 
                                                   Max.-Head-Change                         Max.-Flux-Residual
  Residual-Control   Outer-Iter.   Inner-Iter.     Column Row Layer    Maximum-Head-Change  Column Row Layer    Maximum-Flux-Residual          L2-NORM 
          0                 1           2             4    7     1       0.1677694459E-01       4    7    1         0.8801511835E+00      0.2214693133E+01
          0                 2           2             4    7     1      -0.1631060115E-02       4    7    1        -0.8796765309E-01      0.2213151785E+00
          0                 3           1             4    7     1       0.1109854297E-03       4    7    1         0.6153084160E-02      0.1548325870E-01
          0                 4           1             4    7     1      -0.4410678480E-05       4    7    1        -0.2513450574E-03      0.6326783821E-03

    ------------------------------------------------
       NWT REQUIRED            4 OUTER ITERATIONS 
       AND A TOTAL OF          6 INNER ITERATIONS.
    ------------------------------------------------

 NO OUTPUT CONTROL FOR STRESS PERIOD   14   TIME STEP    1
 
 SOLVING FOR HEAD 
                                                   Max.-Head-Change                         Max.-Flux-Residual
  Residual-Control   Outer-Iter.   Inner-Iter.     Column Row Layer    Maximum-Head-Change  Column Row Layer    Maximum-Flux-Residual          L2-NORM 
          0                 1           2             4    7     1       0.1661659503E-01       4    7    1         0.8717111337E+00      0.2206416960E+01
          0                 2           2             4    7     1      -0.1615470810E-02       4    7    1        -0.8712409786E-01      0.2205174334E+00
          0                 3           1             4    7     1       0.1099246556E-03       4    7    1         0.6094079809E-02      0.1542430656E-01
          0                 4           1             4    7     1      -0.4368521631E-05       4    7    1        -0.2489347899E-03      0.6300071759E-03

    ------------------------------------------------
       NWT REQUIRED            4 OUTER ITERATIONS 
       AND A TOTAL OF          6 INNER ITERATIONS.
    ------------------------------------------------

 NO OUTPUT CONTROL FOR STRESS PERIOD   14   TIME STEP    2
 
 SOLVING FOR HEAD 
                                                   Max.-Head-Change                         Max.-Flux-Residual
  Residual-Control   Outer-Iter.   Inner-Iter.     Column Row Layer    Maximum-Head-Change  Column Row Layer    Maximum-Flux-Residual          L2-NORM 
          0                 1           2             4    7     1       0.1645835643E-01       4    7    1         0.8633824851E+00      0.2187238759E+01
          0                 2           2             4    7     1      -0.1600086733E-02       4    7    1        -0.8629167693E-01      0.2186058153E+00
          0                 3           1             4    7     1       0.1088778462E-03       4    7    1         0.6035854244E-02      0.1529121168E-01
          0                 4           1             4    7     1      -0.4326920388E-05       4    7    1        -0.2465563534E-03      0.6246753211E-03

    ------------------------------------------------
       NWT REQUIRED            4 OUTER ITERATIONS 
       AND A TOTAL OF          6 INNER ITERATIONS.
    ------------------------------------------------

 NO OUTPUT CONTROL FOR STRESS PERIOD   14   TIME STEP    3
 
 SOLVING FOR HEAD 
                                                   Max.-Head-Change                         Max.-Flux-Residual
  Residual-Control   Outer-Iter.   Inner-Iter.     Column Row Layer    Maximum-Head-Change  Column Row Layer    Maximum-Flux-Residual          L2-NORM 
          0                 1           2             4    7     1       0.1630205267E-01       4    7    1         0.8551559286E+00      0.2168388266E+01
          0                 2           2             4    7     1      -0.1584890765E-02       4    7    1        -0.8546945979E-01      0.2167259884E+00
          0                 3           1             4    7     1       0.1078438364E-03       4    7    1         0.5978342406E-02      0.1516006862E-01
          0                 4           1             4    7     1      -0.4285827548E-05       4    7    1        -0.2442070618E-03      0.6193281852E-03

    ------------------------------------------------
       NWT REQUIRED            4 OUTER ITERATIONS 
       AND A TOTAL OF          6 INNER ITERATIONS.
    ------------------------------------------------

 NO OUTPUT CONTROL FOR STRESS PERIOD   14   TIME STEP    4
 
 SOLVING FOR HEAD 
                                                   Max.-Head-Change                         Max.-Flux-Residual
  Residual-Control   Outer-Iter.   Inner-Iter.     Column Row Layer    Maximum-Head-Change  Column Row Layer    Maximum-Flux-Residual          L2-NORM 
          0                 1           2             4    7     1       0.1614778596E-01       4    7    1         0.8470370482E+00      0.2149863740E+01
          0                 2           2             4    7     1      -0.1569892842E-02       4    7    1        -0.8465800464E-01      0.2148783591E+00
          0                 3           1             4    7     1       0.1068233028E-03       4    7    1         0.5921583354E-02      0.1503110714E-01
          0                 4           1             4    7     1      -0.4245270397E-05       4    7    1        -0.2418885188E-03      0.6140962816E-03

    ------------------------------------------------
       NWT REQUIRED            4 OUTER ITERATIONS 
       AND A TOTAL OF          6 INNER ITERATIONS.
    ------------------------------------------------

 NO OUTPUT CONTROL FOR STRESS PERIOD   14   TIME STEP    5
 
 SOLVING FOR HEAD 
                                                   Max.-Head-Change                         Max.-Flux-Residual
  Residual-Control   Outer-Iter.   Inner-Iter.     Column Row Layer    Maximum-Head-Change  Column Row Layer    Maximum-Flux-Residual          L2-NORM 
          0                 1           2             4    7     1       0.1599538457E-01       4    7    1         0.8390164274E+00      0.2131638252E+01
          0                 2           2             4    7     1      -0.1555076266E-02       4    7    1        -0.8385637027E-01      0.2130603386E+00
          0                 3           1             4    7     1       0.1058151090E-03       4    7    1         0.5865511228E-02      0.1490453656E-01
          0                 4           1             4    7     1      -0.4205203690E-05       4    7    1        -0.2395980487E-03      0.6088031518E-03

    ------------------------------------------------
       NWT REQUIRED            4 OUTER ITERATIONS 
       AND A TOTAL OF          6 INNER ITERATIONS.
    ------------------------------------------------

 NO OUTPUT CONTROL FOR STRESS PERIOD   14   TIME STEP    6
 
 SOLVING FOR HEAD 
                                                   Max.-Head-Change                         Max.-Flux-Residual
  Residual-Control   Outer-Iter.   Inner-Iter.     Column Row Layer    Maximum-Head-Change  Column Row Layer    Maximum-Flux-Residual          L2-NORM 
          0                 1           2             4    7     1       0.1584508640E-01       4    7    1         0.8311072360E+00      0.2113702973E+01
          0                 2           2             4    7     1      -0.1540464170E-02       4    7    1        -0.8306587302E-01      0.2112703562E+00
          0                 3           1             4    7     1       0.1048208293E-03       4    7    1         0.5810218147E-02      0.1477939392E-01
          0                 4           1             4    7     1      -0.4165689940E-05       4    7    1        -0.2373393861E-03      0.6039122141E-03

    ------------------------------------------------
       NWT REQUIRED            4 OUTER ITERATIONS 
       AND A TOTAL OF          6 INNER ITERATIONS.
    ------------------------------------------------

 NO OUTPUT CONTROL FOR STRESS PERIOD   14   TIME STEP    7
 
 SOLVING FOR HEAD 
                                                   Max.-Head-Change                         Max.-Flux-Residual
  Residual-Control   Outer-Iter.   Inner-Iter.     Column Row Layer    Maximum-Head-Change  Column Row Layer    Maximum-Flux-Residual          L2-NORM 
          0                 1           2             4    7     1       0.1569657809E-01       4    7    1         0.8232923768E+00      0.2096032873E+01
          0                 2           2             4    7     1      -0.1526026085E-02       4    7    1        -0.8228480402E-01      0.2095067147E+00
          0                 3           1             4    7     1       0.1038383897E-03       4    7    1         0.5755584505E-02      0.1465617320E-01
          0                 4           1             4    7     1      -0.4126646832E-05       4    7    1        -0.2351076716E-03      0.5987893103E-03

    ------------------------------------------------
       NWT REQUIRED            4 OUTER ITERATIONS 
       AND A TOTAL OF          6 INNER ITERATIONS.
    ------------------------------------------------

 NO OUTPUT CONTROL FOR STRESS PERIOD   14   TIME STEP    8
 
 SOLVING FOR HEAD 
                                                   Max.-Head-Change                         Max.-Flux-Residual
  Residual-Control   Outer-Iter.   Inner-Iter.     Column Row Layer    Maximum-Head-Change  Column Row Layer    Maximum-Flux-Residual          L2-NORM 
          0                 1           2             4    7     1       0.1554983666E-01       4    7    1         0.8155703186E+00      0.2078631906E+01
          0                 2           2             4    7     1      -0.1511778724E-02       4    7    1        -0.8151301020E-01      0.2077960688E+00
          0                 3           1             4    7     1       0.1028689276E-03       4    7    1         0.5701599605E-02      0.1453679477E-01
          0                 4           1             4    7     1      -0.4088119035E-05       4    7    1        -0.2329024387E-03      0.5939324915E-03

    ------------------------------------------------
       NWT REQUIRED            4 OUTER ITERATIONS 
       AND A TOTAL OF          6 INNER ITERATIONS.
    ------------------------------------------------

 NO OUTPUT CONTROL FOR STRESS PERIOD   14   TIME STEP    9
 
 SOLVING FOR HEAD 
                                                   Max.-Head-Change                         Max.-Flux-Residual
  Residual-Control   Outer-Iter.   Inner-Iter.     Column Row Layer    Maximum-Head-Change  Column Row Layer    Maximum-Flux-Residual          L2-NORM 
          0                 1           2             4    7     1       0.1540500464E-01       4    7    1         0.8079535774E+00      0.2061456744E+01
          0                 2           2             4    7     1      -0.1497679126E-02       4    7    1        -0.8075174299E-01      0.2060550763E+00
          0                 3           1             4    7     1       0.1019095220E-03       4    7    1         0.5648351141E-02      0.1441515917E-01
          0                 4           1             4    7     1      -0.4049991307E-05       4    7    1        -0.2307273230E-03      0.5889907977E-03

    ------------------------------------------------
       NWT REQUIRED            4 OUTER ITERATIONS 
       AND A TOTAL OF          6 INNER ITERATIONS.
    ------------------------------------------------

 NO OUTPUT CONTROL FOR STRESS PERIOD   14   TIME STEP   10
 
 SOLVING FOR HEAD 
                                                   Max.-Head-Change                         Max.-Flux-Residual
  Residual-Control   Outer-Iter.   Inner-Iter.     Column Row Layer    Maximum-Head-Change  Column Row Layer    Maximum-Flux-Residual          L2-NORM 
          0                 1           2             4    7     1       0.1526184229E-01       4    7    1         0.8004231375E+00      0.2044486224E+01
          0                 2           2             4    7     1      -0.1483760785E-02       4    7    1        -0.7999910116E-01      0.2043606415E+00
          0                 3           1             4    7     1       0.1009624487E-03       4    7    1         0.5595705929E-02      0.1429680621E-01
          0                 4           1             4    7     1      -0.4012354022E-05       4    7    1        -0.2285768269E-03      0.5842541246E-03

    ------------------------------------------------
       NWT REQUIRED            4 OUTER ITERATIONS 
       AND A TOTAL OF          6 INNER ITERATIONS.
    ------------------------------------------------

 NO OUTPUT CONTROL FOR STRESS PERIOD   14   TIME STEP   11
 
 SOLVING FOR HEAD 
                                                   Max.-Head-Change                         Max.-Flux-Residual
  Residual-Control   Outer-Iter.   Inner-Iter.     Column Row Layer    Maximum-Head-Change  Column Row Layer    Maximum-Flux-Residual          L2-NORM 
          0                 1           2             4    7     1       0.1512057730E-01       4    7    1         0.7929929761E+00      0.2027752246E+01
          0                 2           2             4    7     1      -0.1470026909E-02       4    7    1        -0.7925648195E-01      0.2026895422E+00
          0                 3           1             4    7     1       0.1000279275E-03       4    7    1         0.5543761774E-02      0.1418008460E-01
          0                 4           1             4    7     1      -0.3975215009E-05       4    7    1        -0.2264549757E-03      0.5794224200E-03

    ------------------------------------------------
       NWT REQUIRED            4 OUTER ITERATIONS 
       AND A TOTAL OF          6 INNER ITERATIONS.
    ------------------------------------------------

 NO OUTPUT CONTROL FOR STRESS PERIOD   14   TIME STEP   12
 
 SOLVING FOR HEAD 
                                                   Max.-Head-Change                         Max.-Flux-Residual
  Residual-Control   Outer-Iter.   Inner-Iter.     Column Row Layer    Maximum-Head-Change  Column Row Layer    Maximum-Flux-Residual          L2-NORM 
          0                 1           2             4    7     1       0.1498090838E-01       4    7    1         0.7856464714E+00      0.2011245649E+01
          0                 2           2             4    7     1      -0.1456448204E-02       4    7    1        -0.7852222392E-01      0.2010409926E+00
          0                 3           1             4    7     1       0.9910396477E-04       4    7    1         0.5492402482E-02      0.1406486039E-01

    ------------------------------------------------
       NWT REQUIRED            3 OUTER ITERATIONS 
       AND A TOTAL OF          5 INNER ITERATIONS.
    ------------------------------------------------

 NO OUTPUT CONTROL FOR STRESS PERIOD   14   TIME STEP   13
 
 SOLVING FOR HEAD 
                                                   Max.-Head-Change                         Max.-Flux-Residual
  Residual-Control   Outer-Iter.   Inner-Iter.     Column Row Layer    Maximum-Head-Change  Column Row Layer    Maximum-Flux-Residual          L2-NORM 
          0                 1           2             4    7     1       0.1484290096E-01       4    7    1         0.7783875080E+00      0.1994944269E+01
          0                 2           2             4    7     1      -0.1443031030E-02       4    7    1        -0.7779671544E-01      0.1994128487E+00
          0                 3           1             4    7     1       0.9819099337E-04       4    7    1         0.5441655160E-02      0.1395103988E-01

    ------------------------------------------------
       NWT REQUIRED            3 OUTER ITERATIONS 
       AND A TOTAL OF          5 INNER ITERATIONS.
    ------------------------------------------------

 NO OUTPUT CONTROL FOR STRESS PERIOD   14   TIME STEP   14
 
 SOLVING FOR HEAD 
                                                   Max.-Head-Change                         Max.-Flux-Residual
  Residual-Control   Outer-Iter.   Inner-Iter.     Column Row Layer    Maximum-Head-Change  Column Row Layer    Maximum-Flux-Residual          L2-NORM 
          0                 1           2             4    7     1       0.1470658440E-01       4    7    1         0.7712172916E+00      0.1978873921E+01
          0                 2           2             4    7     1      -0.1429778245E-02       4    7    1        -0.7708007691E-01      0.1978076566E+00
          0                 3           1             4    7     1       0.9728920797E-04       4    7    1         0.5391528284E-02      0.1383886309E-01

    ------------------------------------------------
       NWT REQUIRED            3 OUTER ITERATIONS 
       AND A TOTAL OF          5 INNER ITERATIONS.
    ------------------------------------------------

 NO OUTPUT CONTROL FOR STRESS PERIOD   14   TIME STEP   15
 
 SOLVING FOR HEAD 
                                                   Max.-Head-Change                         Max.-Flux-Residual
  Residual-Control   Outer-Iter.   Inner-Iter.     Column Row Layer    Maximum-Head-Change  Column Row Layer    Maximum-Flux-Residual          L2-NORM 
          0                 1           2             4    7     1       0.1457206692E-01       4    7    1         0.7641421042E+00      0.1963010881E+01
          0                 2           2             4    7     1      -0.1416700368E-02       4    7    1        -0.7637293630E-01      0.1962230447E+00
          0                 3           1             4    7     1       0.9639932404E-04       4    7    1         0.5342065761E-02      0.1372810304E-01

    ------------------------------------------------
       NWT REQUIRED            3 OUTER ITERATIONS 
       AND A TOTAL OF          5 INNER ITERATIONS.
    ------------------------------------------------

 NO OUTPUT CONTROL FOR STRESS PERIOD   14   TIME STEP   16
 
 SOLVING FOR HEAD 
                                                   Max.-Head-Change                         Max.-Flux-Residual
  Residual-Control   Outer-Iter.   Inner-Iter.     Column Row Layer    Maximum-Head-Change  Column Row Layer    Maximum-Flux-Residual          L2-NORM 
          0                 1           2             4    7     1       0.1443904347E-01       4    7    1         0.7571454747E+00      0.1947343526E+01
          0                 2           2             4    7     1      -0.1403767742E-02       4    7    1        -0.7567364731E-01      0.1946579037E+00
          0                 3           1             4    7     1       0.9551932335E-04       4    7    1         0.5293152427E-02      0.1361869064E-01

    ------------------------------------------------
       NWT REQUIRED            3 OUTER ITERATIONS 
       AND A TOTAL OF          5 INNER ITERATIONS.
    ------------------------------------------------

 NO OUTPUT CONTROL FOR STRESS PERIOD   14   TIME STEP   17
 
 SOLVING FOR HEAD 
                                                   Max.-Head-Change                         Max.-Flux-Residual
  Residual-Control   Outer-Iter.   Inner-Iter.     Column Row Layer    Maximum-Head-Change  Column Row Layer    Maximum-Flux-Residual          L2-NORM 
          0                 1           2             4    7     1       0.1430763026E-01       4    7    1         0.7502336681E+00      0.1931872361E+01
          0                 2           2             4    7     1      -0.1390991665E-02       4    7    1        -0.7498283615E-01      0.1931122050E+00
          0                 3           1             4    7     1       0.9464997544E-04       4    7    1         0.5244832109E-02      0.1351059976E-01

    ------------------------------------------------
       NWT REQUIRED            3 OUTER ITERATIONS 
       AND A TOTAL OF          5 INNER ITERATIONS.
    ------------------------------------------------

 NO OUTPUT CONTROL FOR STRESS PERIOD   14   TIME STEP   18
 
 SOLVING FOR HEAD 
                                                   Max.-Head-Change                         Max.-Flux-Residual
  Residual-Control   Outer-Iter.   Inner-Iter.     Column Row Layer    Maximum-Head-Change  Column Row Layer    Maximum-Flux-Residual          L2-NORM 
          0                 1           2             4    7     1       0.1417780749E-01       4    7    1         0.7434053491E+00      0.1916605074E+01
          0                 2           2             4    7     1      -0.1378370212E-02       4    7    1        -0.7430036931E-01      0.1915868652E+00
          0                 3           1             4    7     1       0.9379114885E-04       4    7    1         0.5197095452E-02      0.1340398564E-01

    ------------------------------------------------
       NWT REQUIRED            3 OUTER ITERATIONS 
       AND A TOTAL OF          5 INNER ITERATIONS.
    ------------------------------------------------

 NO OUTPUT CONTROL FOR STRESS PERIOD   14   TIME STEP   19
 
 SOLVING FOR HEAD 
                                                   Max.-Head-Change                         Max.-Flux-Residual
  Residual-Control   Outer-Iter.   Inner-Iter.     Column Row Layer    Maximum-Head-Change  Column Row Layer    Maximum-Flux-Residual          L2-NORM 
          0                 1           2             4    7     1       0.1404955131E-01       4    7    1         0.7366594920E+00      0.1901523635E+01
          0                 2           2             4    7     1      -0.1365901065E-02       4    7    1        -0.7362614428E-01      0.1900799948E+00
          0                 3           1             4    7     1       0.9294268629E-04       4    7    1         0.5149935290E-02      0.1329859709E-01

    ------------------------------------------------
       NWT REQUIRED            3 OUTER ITERATIONS 
       AND A TOTAL OF          5 INNER ITERATIONS.
    ------------------------------------------------

 NO OUTPUT CONTROL FOR STRESS PERIOD   14   TIME STEP   20
 
 SOLVING FOR HEAD 
                                                   Max.-Head-Change                         Max.-Flux-Residual
  Residual-Control   Outer-Iter.   Inner-Iter.     Column Row Layer    Maximum-Head-Change  Column Row Layer    Maximum-Flux-Residual          L2-NORM 
          0                 1           2             4    7     1       0.1392297268E-01       4    7    1         0.7300022213E+00      0.1886621870E+01
          0                 2           2             4    7     1      -0.1353595010E-02       4    7    1        -0.7296077321E-01      0.1885910288E+00
          0                 3           1             4    7     1       0.9210532064E-04       4    7    1         0.5103394412E-02      0.1319447689E-01

    ------------------------------------------------
       NWT REQUIRED            3 OUTER ITERATIONS 
       AND A TOTAL OF          5 INNER ITERATIONS.
    ------------------------------------------------

 NO OUTPUT CONTROL FOR STRESS PERIOD   14   TIME STEP   21
 
 SOLVING FOR HEAD 
                                                   Max.-Head-Change                         Max.-Flux-Residual
  Residual-Control   Outer-Iter.   Inner-Iter.     Column Row Layer    Maximum-Head-Change  Column Row Layer    Maximum-Flux-Residual          L2-NORM 
          0                 1           2             4    7     1       0.1379777036E-01       4    7    1         0.7234172052E+00      0.1871910418E+01
          0                 2           2             4    7     1      -0.1341422762E-02       4    7    1        -0.7230262378E-01      0.1871210043E+00
          0                 3           1             4    7     1       0.9127706004E-04       4    7    1         0.5057358675E-02      0.1309169151E-01

    ------------------------------------------------
       NWT REQUIRED            3 OUTER ITERATIONS 
       AND A TOTAL OF          5 INNER ITERATIONS.
    ------------------------------------------------

 NO OUTPUT CONTROL FOR STRESS PERIOD   14   TIME STEP   22
 
 SOLVING FOR HEAD 
                                                   Max.-Head-Change                         Max.-Flux-Residual
  Residual-Control   Outer-Iter.   Inner-Iter.     Column Row Layer    Maximum-Head-Change  Column Row Layer    Maximum-Flux-Residual          L2-NORM 
          0                 1           2             4    7     1       0.1367420179E-01       4    7    1         0.7169182714E+00      0.1857374169E+01
          0                 2           2             4    7     1      -0.1331564971E-02       4    7    1        -0.7178896509E-01      0.1857036295E+00
          0                 3           1             4    7     1       0.9060632574E-04       4    7    1         0.5021430560E-02      0.1299261873E-01

    ------------------------------------------------
       NWT REQUIRED            3 OUTER ITERATIONS 
       AND A TOTAL OF          5 INNER ITERATIONS.
    ------------------------------------------------

 NO OUTPUT CONTROL FOR STRESS PERIOD   14   TIME STEP   23
 
 SOLVING FOR HEAD 
                                                   Max.-Head-Change                         Max.-Flux-Residual
  Residual-Control   Outer-Iter.   Inner-Iter.     Column Row Layer    Maximum-Head-Change  Column Row Layer    Maximum-Flux-Residual          L2-NORM 
          0                 1           2             4    7     1       0.1354742616E-01       4    7    1         0.7103743623E+00      0.1842974301E+01
          0                 2           2             4    7     1      -0.1317084709E-02       4    7    1        -0.7099905668E-01      0.1842295842E+00
          0                 3           1             4    7     1       0.8962101171E-04       4    7    1         0.4966178309E-02      0.1288950304E-01

    ------------------------------------------------
       NWT REQUIRED            3 OUTER ITERATIONS 
       AND A TOTAL OF          5 INNER ITERATIONS.
    ------------------------------------------------

 NO OUTPUT CONTROL FOR STRESS PERIOD   14   TIME STEP   24
 
 SOLVING FOR HEAD 
                                                   Max.-Head-Change                         Max.-Flux-Residual
  Residual-Control   Outer-Iter.   Inner-Iter.     Column Row Layer    Maximum-Head-Change  Column Row Layer    Maximum-Flux-Residual          L2-NORM 
          0                 1           2             4    7     1       0.1342464285E-01       4    7    1         0.7039087473E+00      0.1828757122E+01
          0                 2           2             4    7     1      -0.1305147623E-02       4    7    1        -0.7035283999E-01      0.1828088340E+00
          0                 3           1             4    7     1       0.8880875236E-04       4    7    1         0.4920977209E-02      0.1279016827E-01

    ------------------------------------------------
       NWT REQUIRED            3 OUTER ITERATIONS 
       AND A TOTAL OF          5 INNER ITERATIONS.
    ------------------------------------------------

 NO OUTPUT CONTROL FOR STRESS PERIOD   14   TIME STEP   25
 
 SOLVING FOR HEAD 
                                                   Max.-Head-Change                         Max.-Flux-Residual
  Residual-Control   Outer-Iter.   Inner-Iter.     Column Row Layer    Maximum-Head-Change  Column Row Layer    Maximum-Flux-Residual          L2-NORM 
          0                 1           2             4    7     1       0.1330345398E-01       4    7    1         0.6975278744E+00      0.1814701392E+01
          0                 2           2             4    7     1      -0.1293365552E-02       4    7    1        -0.6971509311E-01      0.1814042101E+00
          0                 3           1             4    7     1       0.8800704035E-04       4    7    1         0.4876368551E-02      0.1269192918E-01

    ------------------------------------------------
       NWT REQUIRED            3 OUTER ITERATIONS 
       AND A TOTAL OF          5 INNER ITERATIONS.
    ------------------------------------------------

 NO OUTPUT CONTROL FOR STRESS PERIOD   14   TIME STEP   26
 
 SOLVING FOR HEAD 
                                                   Max.-Head-Change                         Max.-Flux-Residual
  Residual-Control   Outer-Iter.   Inner-Iter.     Column Row Layer    Maximum-Head-Change  Column Row Layer    Maximum-Flux-Residual          L2-NORM 
          0                 1           2             4    7     1       0.1318382803E-01       4    7    1         0.6912296703E+00      0.1800810239E+01
          0                 2           2             4    7     1      -0.1281735430E-02       4    7    1        -0.6908560878E-01      0.1800159638E+00
          0                 3           1             4    7     1       0.8721566883E-04       4    7    1         0.4832337854E-02      0.1259483319E-01

    ------------------------------------------------
       NWT REQUIRED            3 OUTER ITERATIONS 
       AND A TOTAL OF          5 INNER ITERATIONS.
    ------------------------------------------------

 NO OUTPUT CONTROL FOR STRESS PERIOD   14   TIME STEP   27
 
 SOLVING FOR HEAD 
                                                   Max.-Head-Change                         Max.-Flux-Residual
  Residual-Control   Outer-Iter.   Inner-Iter.     Column Row Layer    Maximum-Head-Change  Column Row Layer    Maximum-Flux-Residual          L2-NORM 
          0                 1           2             4    7     1       0.1306587072E-01       4    7    1         0.6850198636E+00      0.1787091208E+01
          0                 2           2             4    7     1      -0.1270267534E-02       4    7    1        -0.6846495954E-01      0.1786449410E+00
          0                 3           1             4    7     1       0.8643533528E-04       4    7    1         0.4788925108E-02      0.1249892739E-01

    ------------------------------------------------
       NWT REQUIRED            3 OUTER ITERATIONS 
       AND A TOTAL OF          5 INNER ITERATIONS.
    ------------------------------------------------

 NO OUTPUT CONTROL FOR STRESS PERIOD   14   TIME STEP   28
 
 SOLVING FOR HEAD 
                                                   Max.-Head-Change                         Max.-Flux-Residual
  Residual-Control   Outer-Iter.   Inner-Iter.     Column Row Layer    Maximum-Head-Change  Column Row Layer    Maximum-Flux-Residual          L2-NORM 
          0                 1           2             4    7     1       0.1294927291E-01       4    7    1         0.6788818466E+00      0.1773530815E+01
          0                 2           2             4    7     1      -0.1258931813E-02       4    7    1        -0.6785148554E-01      0.1772897326E+00
          0                 3           1             4    7     1       0.8566399567E-04       4    7    1         0.4746014304E-02      0.1240417371E-01

    ------------------------------------------------
       NWT REQUIRED            3 OUTER ITERATIONS 
       AND A TOTAL OF          5 INNER ITERATIONS.
    ------------------------------------------------

 NO OUTPUT CONTROL FOR STRESS PERIOD   14   TIME STEP   29
 
 SOLVING FOR HEAD 
                                                   Max.-Head-Change                         Max.-Flux-Residual
  Residual-Control   Outer-Iter.   Inner-Iter.     Column Row Layer    Maximum-Head-Change  Column Row Layer    Maximum-Flux-Residual          L2-NORM 
          0                 1           2             4    7     1       0.1283428241E-01       4    7    1         0.6728290435E+00      0.1760125170E+01
          0                 2           2             4    7     1      -0.1247752355E-02       4    7    1        -0.6724652843E-01      0.1759499641E+00
          0                 3           1             4    7     1       0.8490328919E-04       4    7    1         0.4703699202E-02      0.1231044198E-01

    ------------------------------------------------
       NWT REQUIRED            3 OUTER ITERATIONS 
       AND A TOTAL OF          5 INNER ITERATIONS.
    ------------------------------------------------

 NO OUTPUT CONTROL FOR STRESS PERIOD   14   TIME STEP   30



 STREAM LISTING     PERIOD     14   STEP       30

 LAYER ROW COL. STREAM  RCH.  FLOW INTO     FLOW TO   FLOW OUT OF   OVRLND.     DIRECT     STREAM       STREAM     STREAM     STREAM   STREAMBED  STREAMBED
                SEG.NO.  NO.  STRM. RCH.    AQUIFER    STRM. RCH.    RUNOFF     PRECIP       ET          HEAD       DEPTH      WIDTH   CONDCTNC.   GRADIENT

   1    1    1     1     1    1.9000E+01  2.1427E-01   1.8786E+01  0.000E+00  0.000E+00  0.000E+00  1.09413E+03  1.082E+00  1.166E+01  5.249E-02  1.361E+00
   1    2    2     1     2    1.8786E+01  3.3055E-01   1.8455E+01  0.000E+00  0.000E+00  0.000E+00  1.08914E+03  1.077E+00  1.158E+01  8.107E-02  1.359E+00
   1    3    3     1     3    1.8455E+01  2.8065E-01   1.8175E+01  0.000E+00  0.000E+00  0.000E+00  1.08349E+03  1.072E+00  1.149E+01  6.892E-02  1.357E+00
   1    3    4     1     4    1.8175E+01  2.5740E-01   1.7917E+01  0.000E+00  0.000E+00  0.000E+00  1.07848E+03  1.068E+00  1.140E+01  6.328E-02  1.356E+00
   1    4    5     2     1    1.5917E+01  3.0543E-01   1.5612E+01  0.000E+00  0.000E+00  0.000E+00  1.07285E+03  9.157E-01  1.200E+01  7.800E-02  1.305E+00
   1    5    6     2     2    1.5612E+01  2.3438E-01   1.5378E+01  0.000E+00  0.000E+00  0.000E+00  1.06742E+03  9.063E-01  1.200E+01  6.000E-02  1.302E+00
   1    6    6     2     3    1.5378E+01  2.3388E-01   1.5144E+01  0.000E+00  0.000E+00  0.000E+00  1.06269E+03  8.980E-01  1.200E+01  6.000E-02  1.299E+00
   1    7    6     2     4    1.5144E+01  2.3339E-01   1.4910E+01  0.000E+00  0.000E+00  0.000E+00  1.05797E+03  8.898E-01  1.200E+01  6.000E-02  1.297E+00
   1    8    6     2     5    1.4910E+01  2.3289E-01   1.4677E+01  0.000E+00  0.000E+00  0.000E+00  1.05324E+03  8.814E-01  1.200E+01  6.000E-02  1.294E+00
   1    3    5     3     1    2.0000E+00  2.8252E-01   1.7175E+00  0.000E+00  0.000E+00  0.000E+00  1.07555E+03  1.909E+00  9.636E+00  7.227E-02  1.955E+00
   1    3    6     3     2    1.7175E+00  2.4905E-01   1.4684E+00  0.000E+00  0.000E+00  0.000E+00  1.07264E+03  1.727E+00  8.909E+00  6.682E-02  1.864E+00
   1    3    7     3     3    1.4684E+00  1.9718E-01   1.2712E+00  0.000E+00  0.000E+00  0.000E+00  1.06987E+03  1.555E+00  8.218E+00  5.547E-02  1.777E+00
   1    4    8     3     4    1.2712E+00  2.2567E-01   1.0456E+00  0.000E+00  0.000E+00  0.000E+00  1.06682E+03  1.364E+00  7.455E+00  6.709E-02  1.682E+00
   1    5    8     3     5    1.0456E+00  1.5790E-01   8.8768E-01  0.000E+00  0.000E+00  0.000E+00  1.06362E+03  1.164E+00  6.655E+00  4.991E-02  1.582E+00
   1    6    8     3     6    8.8768E-01  5.5980E-02   8.3170E-01  0.000E+00  0.000E+00  0.000E+00  1.06158E+03  1.036E+00  6.145E+00  1.844E-02  1.518E+00
   1    5   10     4     1    1.0000E+01  9.0919E-02   9.9091E+00  0.000E+00  0.000E+00  0.000E+00  1.07836E+03  6.368E-01  1.000E+01  2.500E-02  1.212E+00
   1    5    9     4     2    9.9091E+00  1.8158E-01   9.7275E+00  0.000E+00  0.000E+00  0.000E+00  1.07154E+03  6.315E-01  1.000E+01  5.000E-02  1.211E+00
   1    6    8     4     3    9.7275E+00  1.2689E-01   9.6006E+00  0.000E+00  0.000E+00  0.000E+00  1.06381E+03  6.256E-01  1.000E+01  3.500E-02  1.209E+00
   1    6    8     5     1    1.0432E+01  2.2686E-01   1.0205E+01  0.000E+00  0.000E+00  0.000E+00  1.05868E+03  6.790E-01  1.542E+01  6.166E-02  1.226E+00
   1    7    7     5     2    1.0205E+01  2.7894E-01   9.9265E+00  0.000E+00  0.000E+00  0.000E+00  1.05417E+03  6.732E-01  1.519E+01  7.594E-02  1.224E+00
   1    8    7     5     3    9.9265E+00  1.9221E-01   9.7343E+00  0.000E+00  0.000E+00  0.000E+00  1.04992E+03  6.676E-01  1.497E+01  5.241E-02  1.223E+00
   1    8    6     5     4    9.7343E+00  1.3577E-01   9.5985E+00  0.000E+00  0.000E+00  0.000E+00  1.04691E+03  6.637E-01  1.482E+01  3.706E-02  1.221E+00
   1    9    6     6     1    2.4276E+01  2.5176E-01   2.4024E+01  0.000E+00  0.000E+00  0.000E+00  1.04392E+03  1.196E+00  1.200E+01  6.000E-02  1.399E+00
   1   10    7     6     2    2.4024E+01  2.5131E-01   2.3773E+01  0.000E+00  0.000E+00  0.000E+00  1.03937E+03  1.188E+00  1.200E+01  6.000E-02  1.396E+00
   1   11    7     6     3    2.3773E+01  2.5086E-01   2.3522E+01  0.000E+00  0.000E+00  0.000E+00  1.03482E+03  1.181E+00  1.200E+01  6.000E-02  1.394E+00
   1   12    7     6     4    2.3522E+01  2.5041E-01   2.3272E+01  0.000E+00  0.000E+00  0.000E+00  1.03026E+03  1.173E+00  1.200E+01  6.000E-02  1.391E+00
   1   13    7     6     5    2.3272E+01 -1.2580E-02   2.3284E+01  0.000E+00  0.000E+00  0.000E+00  1.02708E+03  1.170E+00  1.200E+01  2.400E-01 -1.747E-02
   1   14    9     7     1    1.5000E+02  1.3295E+00   1.4867E+02  0.000E+00  0.000E+00  0.000E+00  1.03987E+03  2.288E+00  5.529E+01  5.593E-01  7.924E-01
   1   13    8     7     2    1.4867E+02  1.8075E+00   1.4686E+02  0.000E+00  0.000E+00  0.000E+00  1.03478E+03  2.279E+00  5.526E+01  6.148E-01  9.800E-01
   1   13    7     7     3    1.4686E+02  1.4290E+00   1.4543E+02  0.000E+00  0.000E+00  0.000E+00  1.02969E+03  2.271E+00  5.522E+01  5.585E-01  8.529E-01
   1   13    6     8     1    1.6872E+02  8.8083E-01   1.6784E+02  0.000E+00  0.000E+00  0.000E+00  1.02482E+03  2.941E+00  4.264E+01  4.346E-01  6.757E-01
   1   13    5     8     2    1.6784E+02  1.4829E-01   1.6769E+02  0.000E+00  0.000E+00  0.000E+00  1.01856E+03  2.938E+00  4.259E+01  4.341E-01  1.139E-01
   1   13    4     8     3    1.6769E+02 -2.5060E+00   1.7020E+02  0.000E+00  0.000E+00  0.000E+00  1.01232E+03  2.945E+00  4.271E+01  4.352E+00 -1.919E-01
   1   13    3     8     4    1.7020E+02 -3.6997E+00   1.7389E+02  0.000E+00  0.000E+00  0.000E+00  1.00609E+03  2.965E+00  4.300E+01  4.382E+00 -2.814E-01
   1   13    2     8     5    1.7389E+02 -2.6037E+00   1.7650E+02  0.000E+00  0.000E+00  0.000E+00  9.99861E+02  2.986E+00  4.329E+01  4.412E+00 -1.967E-01
   1   13    1     8     6    1.7650E+02 -2.0002E+00   1.7850E+02  0.000E+00  0.000E+00  0.000E+00  9.94875E+02  3.000E+00  4.351E+01  2.660E+00 -2.507E-01





UNSATURATED ZONE PACKAGE VOLUMETRIC BUDGET FOR  TIME STEP    30 STRESS PERIOD   14
  ------------------------------------------------------------------------------



     CUMULATIVE VOLUMES      L**3       RATES FOR THIS TIME STEP      L**3/T
     ------------------                 ------------------------

           IN:                                      IN:
           ---                                      ---
        INFILTRATION =   504894120.1723          INFILTRATION =           0.8475

          OUT:                                     OUT:
          ----                                     ----
              UZF ET =   432028589.3703                UZF ET =           0.7500
        UZF RECHARGE =    72023943.2176          UZF RECHARGE =           0.0002

            IN - OUT =      841587.5844              IN - OUT =       9.7337E-02

          STORAGE:                                 STORAGE:
          --------                                 --------
      STORAGE CHANGE =      841581.5500        STORAGE CHANGE =       9.7337E-02

 PERCENT DISCREPANCY IS DIFFERENCE BETWEEN IN-OUT MINUS CHANGE IN STORAGE
 DIVIDED BY THE AVERAGE OF IN AND OUT TIMES 100

 PERCENT DISCREPANCY =           0.00     PERCENT DISCREPANCY =           0.00






1
  VOLUMETRIC BUDGET FOR AGRICULTURAL FIELDS AT  END OF TIME STEP   30, STRESS PERIOD  14
  ------------------------------------------------------------------------------

     CUMULATIVE VOLUMES      L**3       RATES FOR THIS TIME STEP      L**3/T
     ------------------                 ------------------------

           IN:                                      IN:
           ---                                      ---
           AG WELLS      =   475844416.0000             AG WELLS      =           0.0000
      DIVERSION SEGMENTS =           0.0000        DIVERSION SEGMENTS =           0.0000
           GW IRRIGATION =           0.0000             GW IRRIGATION =           0.0000
           SW IRRIGATION =           0.0000             SW IRRIGATION =           0.0000
        SYSTEM LOSSES GW =           0.0000          SYSTEM LOSSES GW =           0.0000
        SYSTEM LOSSES SW =           0.0000          SYSTEM LOSSES SW =           0.0000

                TOTAL IN =   475844416.0000                  TOTAL IN =           0.0000

          OUT:                                     OUT:
          ----                                     ----
           AG WELLS      =           0.0000             AG WELLS      =           0.0000
      DIVERSION SEGMENTS =           0.0000        DIVERSION SEGMENTS =           0.0000
           GW IRRIGATION =   475844416.0000             GW IRRIGATION =           0.0000
           SW IRRIGATION =           0.0000             SW IRRIGATION =           0.0000
        SYSTEM LOSSES GW =           0.0000          SYSTEM LOSSES GW =           0.0000
        SYSTEM LOSSES SW =           0.0000          SYSTEM LOSSES SW =           0.0000

               TOTAL OUT =   475844416.0000                 TOTAL OUT =           0.0000

                IN - OUT =           0.0000                  IN - OUT =           0.0000

     PERCENT DISCREPANCY =           0.00         PERCENT DISCREPANCY =           0.00



1
  VOLUMETRIC BUDGET FOR ENTIRE MODEL AT END OF TIME STEP   30, STRESS PERIOD  14
  ------------------------------------------------------------------------------

     CUMULATIVE VOLUMES      L**3       RATES FOR THIS TIME STEP      L**3/T
     ------------------                 ------------------------

           IN:                                      IN:
           ---                                      ---
             STORAGE     =   612392512.0000               STORAGE     =           5.6650
       CONSTANT HEAD     =           0.0000         CONSTANT HEAD     =           0.0000
     HEAD DEP BOUNDS     =     9783329.0000       HEAD DEP BOUNDS     =           0.2853
      STREAM LEAKAGE     =   424236800.0000        STREAM LEAKAGE     =          11.3237
        UZF RECHARGE     =    72023936.0000          UZF RECHARGE     =       1.6328E-04
               GW ET     =           0.0000                 GW ET     =           0.0000
     SURFACE LEAKAGE     =           0.0000       SURFACE LEAKAGE     =           0.0000
           AG WELLS      =           0.0000             AG WELLS      =           0.0000

                TOTAL IN =  1118436608.0000                  TOTAL IN =          17.2742

          OUT:                                     OUT:
          ----                                     ----
             STORAGE     =   261480096.0000               STORAGE     =           6.1623
       CONSTANT HEAD     =           0.0000         CONSTANT HEAD     =           0.0000
     HEAD DEP BOUNDS     =    10088056.0000       HEAD DEP BOUNDS     =           0.2898
      STREAM LEAKAGE     =   357272064.0000        STREAM LEAKAGE     =          10.8222
        UZF RECHARGE     =           0.0000          UZF RECHARGE     =           0.0000
               GW ET     =    13750699.0000                 GW ET     =           0.0000
     SURFACE LEAKAGE     =           0.0000       SURFACE LEAKAGE     =           0.0000
           AG WELLS      =   475844416.0000             AG WELLS      =           0.0000

               TOTAL OUT =  1118435328.0000                 TOTAL OUT =          17.2744

                IN - OUT =        1280.0000                  IN - OUT =      -1.3542E-04

     PERCENT DISCREPANCY =           0.00         PERCENT DISCREPANCY =          -0.00






         TIME SUMMARY AT END OF TIME STEP   30 IN STRESS PERIOD   14
                    SECONDS     MINUTES      HOURS       DAYS        YEARS
                    -----------------------------------------------------------
   TIME STEP LENGTH  87667.      1461.1      24.352      1.0147     2.77799E-03
 STRESS PERIOD TIME 2.63000E+06  43833.      730.56      30.440     8.33397E-02
         TOTAL TIME 3.42763E+07 5.71272E+05  9521.2      396.72      1.0862    
1
1
                            STRESS PERIOD NO.   15, LENGTH =   2630000.    
                            -----------------------------------------------

                              NUMBER OF TIME STEPS =    30

                               MULTIPLIER FOR DELT =     1.000

                            INITIAL TIME STEP SIZE =   87666.66    

 REUSING NON-PARAMETER GHB CELLS FROM LAST STRESS PERIOD

      2 GHB CELLS

 REUSING STREAM SEGMENT DATA FROM LAST STRESS PERIOD



            AREAL INFILTRATION RATE
 READING ON UNIT   19 WITH FORMAT: (FREE)              

            1           2           3           4           5           6           7           8           9          10
 ........................................................................................................................
   1   1.0000E-10  2.0000E-10   0.000       0.000       0.000       0.000       0.000       0.000       0.000       0.000    
   2   2.0000E-10  1.0000E-10  2.0000E-10   0.000       0.000      8.0000E-10  8.0000E-10  5.0000E-10   0.000       0.000    
   3    0.000      5.0000E-10  1.0000E-10  1.0000E-10  8.0000E-10  8.0000E-10  5.0000E-10  5.0000E-10   0.000       0.000    
   4   8.0000E-10  5.0000E-10  1.0000E-10  1.0000E-10  1.0000E-10  1.0000E-10  1.0000E-10  1.0000E-10  2.0000E-10   0.000    
   5   8.0000E-10  5.0000E-10  1.0000E-10  1.0000E-10  1.0000E-10  1.0000E-10  1.0000E-10  1.0000E-10  1.0000E-10  1.0000E-10
   6   8.0000E-10  5.0000E-10  5.0000E-10  2.0000E-10  2.0000E-10  1.0000E-10  1.0000E-10  1.0000E-10  1.0000E-10  5.0000E-10
   7   8.0000E-10  5.0000E-10  5.0000E-10  2.0000E-10  2.0000E-10  1.0000E-10  1.0000E-10  2.0000E-10  2.0000E-10   0.000    
   8    0.000      5.0000E-10  5.0000E-10  2.0000E-10  2.0000E-10  1.0000E-10  1.0000E-10  2.0000E-10  5.0000E-10   0.000    
   9    0.000      5.0000E-10  5.0000E-10  2.0000E-10  2.0000E-10  1.0000E-10  1.0000E-10  2.0000E-10  5.0000E-10   0.000    
  10    0.000      5.0000E-10  5.0000E-10  2.0000E-10  2.0000E-10  1.0000E-10  1.0000E-10  2.0000E-10  5.0000E-10  8.0000E-10
  11    0.000      1.0000E-10  1.0000E-10  1.0000E-10  1.0000E-10  1.0000E-10  1.0000E-10  2.0000E-10  5.0000E-10   0.000    
  12   1.0000E-10  1.0000E-10  1.0000E-10  1.0000E-10  1.0000E-10  1.0000E-10  1.0000E-10  1.0000E-10  2.0000E-10   0.000    
  13   1.0000E-10  1.0000E-10  2.0000E-10  2.0000E-10  2.0000E-10  2.0000E-10  2.0000E-10  1.0000E-10  1.0000E-10   0.000    
  14    0.000      2.0000E-10  5.0000E-10  5.0000E-10  5.0000E-10  5.0000E-10  5.0000E-10  2.0000E-10  1.0000E-10   0.000    
  15    0.000       0.000      8.0000E-10  8.0000E-10  8.0000E-10  8.0000E-10   0.000       0.000       0.000       0.000    

                  ET RATE =  5.000000E-10

 USING ET EXTINCTION DEPTH FROM PREVIOUS STRESS PERIOD. CURRENT PERIOD IS:      15

 USING EXTINCTION WATER CONTENT FROM PREVIOUS STRESS PERIOD. CURRENT PERIOD IS:      15

 USING AIR ENTRY PRESSURE FROM PREVIOUS STRESS PERIOD. CURRENT PERIOD IS:      15

 USING ROOT PRESSURE HEAD FROM PREVIOUS STRESS PERIOD. CURRENT PERIOD IS:      15

 USING ROOT ACTIVITY FROM PREVIOUS STRESS PERIOD. CURRENT PERIOD IS:      15

 PROCESSING AG STRESS PERIOD DATA

 READING AG STRESS PERIOD DATA

 READING IRRIGATION WELL

 END PROCESSING AG STRESS PERIOD DATA OPTIONS
 
 SOLVING FOR HEAD 
                                                   Max.-Head-Change                         Max.-Flux-Residual
  Residual-Control   Outer-Iter.   Inner-Iter.     Column Row Layer    Maximum-Head-Change  Column Row Layer    Maximum-Flux-Residual          L2-NORM 
          0                 1           2             4    7     1       0.1272086495E-01       4    7    1         0.6668595768E+00      0.1746879824E+01
          0                 2           2             4    7     1      -0.1236725831E-02       4    7    1        -0.6664990065E-01      0.1746262153E+00
          0                 3           1             4    7     1       0.8415298913E-04       4    7    1         0.4661966716E-02      0.1221786643E-01

    ------------------------------------------------
       NWT REQUIRED            3 OUTER ITERATIONS 
       AND A TOTAL OF          5 INNER ITERATIONS.
    ------------------------------------------------

 NO OUTPUT CONTROL FOR STRESS PERIOD   15   TIME STEP    1
 
 SOLVING FOR HEAD 
                                                   Max.-Head-Change                         Max.-Flux-Residual
  Residual-Control   Outer-Iter.   Inner-Iter.     Column Row Layer    Maximum-Head-Change  Column Row Layer    Maximum-Flux-Residual          L2-NORM 
          0                 1           2             4    7     1       0.1260872161E-01       4    7    1         0.6609569421E+00      0.1731054095E+01
          0                 2           2             4    7     1      -0.1225823178E-02       4    7    1        -0.6605995252E-01      0.1730490503E+00
          0                 3           1             4    7     1       0.8341111747E-04       4    7    1         0.4620701452E-02      0.1210794898E-01

    ------------------------------------------------
       NWT REQUIRED            3 OUTER ITERATIONS 
       AND A TOTAL OF          5 INNER ITERATIONS.
    ------------------------------------------------

 NO OUTPUT CONTROL FOR STRESS PERIOD   15   TIME STEP    2
 
 SOLVING FOR HEAD 
                                                   Max.-Head-Change                         Max.-Flux-Residual
  Residual-Control   Outer-Iter.   Inner-Iter.     Column Row Layer    Maximum-Head-Change  Column Row Layer    Maximum-Flux-Residual          L2-NORM 
          0                 1           2             4    7     1       0.1249811612E-01       4    7    1         0.6551350959E+00      0.1717074178E+01
          0                 2           2             4    7     1      -0.1215070037E-02       4    7    1        -0.6547807893E-01      0.1716160165E+00
          0                 3           1             4    7     1       0.8267941980E-04       4    7    1         0.4580001003E-02      0.1200766229E-01

    ------------------------------------------------
       NWT REQUIRED            3 OUTER ITERATIONS 
       AND A TOTAL OF          5 INNER ITERATIONS.
    ------------------------------------------------

 NO OUTPUT CONTROL FOR STRESS PERIOD   15   TIME STEP    3
 
 SOLVING FOR HEAD 
                                                   Max.-Head-Change                         Max.-Flux-Residual
  Residual-Control   Outer-Iter.   Inner-Iter.     Column Row Layer    Maximum-Head-Change  Column Row Layer    Maximum-Flux-Residual          L2-NORM 
          0                 1           2             4    7     1       0.1238887389E-01       4    7    1         0.6493856207E+00      0.1704270191E+01
          0                 2           2             4    7     1      -0.1204449433E-02       4    7    1        -0.6490343868E-01      0.1703716684E+00
          0                 3           1             4    7     1       0.8195674033E-04       4    7    1         0.4539806481E-02      0.1192061339E-01

    ------------------------------------------------
       NWT REQUIRED            3 OUTER ITERATIONS 
       AND A TOTAL OF          5 INNER ITERATIONS.
    ------------------------------------------------

 NO OUTPUT CONTROL FOR STRESS PERIOD   15   TIME STEP    4
 
 SOLVING FOR HEAD 
                                                   Max.-Head-Change                         Max.-Flux-Residual
  Residual-Control   Outer-Iter.   Inner-Iter.     Column Row Layer    Maximum-Head-Change  Column Row Layer    Maximum-Flux-Residual          L2-NORM 
          0                 1           2             4    7     1       0.1228111061E-01       4    7    1         0.6437141923E+00      0.1691604862E+01
          0                 2           2             4    7     1      -0.1193972615E-02       4    7    1        -0.6433659900E-01      0.1691057742E+00
          0                 3           1             4    7     1       0.8124384446E-04       4    7    1         0.4500157591E-02      0.1183207485E-01

    ------------------------------------------------
       NWT REQUIRED            3 OUTER ITERATIONS 
       AND A TOTAL OF          5 INNER ITERATIONS.
    ------------------------------------------------

 NO OUTPUT CONTROL FOR STRESS PERIOD   15   TIME STEP    5
 
 SOLVING FOR HEAD 
                                                   Max.-Head-Change                         Max.-Flux-Residual
  Residual-Control   Outer-Iter.   Inner-Iter.     Column Row Layer    Maximum-Head-Change  Column Row Layer    Maximum-Flux-Residual          L2-NORM 
          0                 1           2             4    7     1       0.1217465418E-01       4    7    1         0.6381120802E+00      0.1679093239E+01
          0                 2           2             4    7     1      -0.1183622852E-02       4    7    1        -0.6377668734E-01      0.1678551949E+00
          0                 3           1             4    7     1       0.8053959474E-04       4    7    1         0.4460993314E-02      0.1174459208E-01

    ------------------------------------------------
       NWT REQUIRED            3 OUTER ITERATIONS 
       AND A TOTAL OF          5 INNER ITERATIONS.
    ------------------------------------------------

 NO OUTPUT CONTROL FOR STRESS PERIOD   15   TIME STEP    6
 
 SOLVING FOR HEAD 
                                                   Max.-Head-Change                         Max.-Flux-Residual
  Residual-Control   Outer-Iter.   Inner-Iter.     Column Row Layer    Maximum-Head-Change  Column Row Layer    Maximum-Flux-Residual          L2-NORM 
          0                 1           2             4    7     1       0.1206947907E-01       4    7    1         0.6325777263E+00      0.1666728264E+01
          0                 2           2             4    7     1      -0.1173397658E-02       4    7    1        -0.6322354792E-01      0.1666192324E+00
          0                 3           1             4    7     1       0.7984382053E-04       4    7    1         0.4422302718E-02      0.1165812859E-01

    ------------------------------------------------
       NWT REQUIRED            3 OUTER ITERATIONS 
       AND A TOTAL OF          5 INNER ITERATIONS.
    ------------------------------------------------

 NO OUTPUT CONTROL FOR STRESS PERIOD   15   TIME STEP    7
 
 SOLVING FOR HEAD 
                                                   Max.-Head-Change                         Max.-Flux-Residual
  Residual-Control   Outer-Iter.   Inner-Iter.     Column Row Layer    Maximum-Head-Change  Column Row Layer    Maximum-Flux-Residual          L2-NORM 
          0                 1           2             4    7     1       0.1196570263E-01       4    7    1         0.6271171706E+00      0.1654528191E+01
          0                 2           2             4    7     1      -0.1163308447E-02       4    7    1        -0.6267778444E-01      0.1653997282E+00
          0                 3           1             4    7     1       0.7915730036E-04       4    7    1         0.4384128083E-02      0.1157281841E-01

    ------------------------------------------------
       NWT REQUIRED            3 OUTER ITERATIONS 
       AND A TOTAL OF          5 INNER ITERATIONS.
    ------------------------------------------------

 NO OUTPUT CONTROL FOR STRESS PERIOD   15   TIME STEP    8
 
 SOLVING FOR HEAD 
                                                   Max.-Head-Change                         Max.-Flux-Residual
  Residual-Control   Outer-Iter.   Inner-Iter.     Column Row Layer    Maximum-Head-Change  Column Row Layer    Maximum-Flux-Residual          L2-NORM 
          0                 1           2             4    7     1       0.1186315489E-01       4    7    1         0.6217217692E+00      0.1642465479E+01
          0                 2           2             4    7     1      -0.1153338691E-02       4    7    1        -0.6213853298E-01      0.1641938847E+00
          0                 3           1             4    7     1       0.7847890802E-04       4    7    1         0.4346408920E-02      0.1148840537E-01

    ------------------------------------------------
       NWT REQUIRED            3 OUTER ITERATIONS 
       AND A TOTAL OF          5 INNER ITERATIONS.
    ------------------------------------------------

 NO OUTPUT CONTROL FOR STRESS PERIOD   15   TIME STEP    9
 
 SOLVING FOR HEAD 
                                                   Max.-Head-Change                         Max.-Flux-Residual
  Residual-Control   Outer-Iter.   Inner-Iter.     Column Row Layer    Maximum-Head-Change  Column Row Layer    Maximum-Flux-Residual          L2-NORM 
          0                 1           2             4    7     1       0.1176195020E-01       4    7    1         0.6163974388E+00      0.1630545964E+01
          0                 2           2             4    7     1      -0.1143499506E-02       4    7    1        -0.6160638487E-01      0.1630024149E+00
          0                 3           1             4    7     1       0.7780939980E-04       4    7    1         0.4309186601E-02      0.1140509145E-01

    ------------------------------------------------
       NWT REQUIRED            3 OUTER ITERATIONS 
       AND A TOTAL OF          5 INNER ITERATIONS.
    ------------------------------------------------

 NO OUTPUT CONTROL FOR STRESS PERIOD   15   TIME STEP   10
 
 SOLVING FOR HEAD 
                                                   Max.-Head-Change                         Max.-Flux-Residual
  Residual-Control   Outer-Iter.   Inner-Iter.     Column Row Layer    Maximum-Head-Change  Column Row Layer    Maximum-Flux-Residual          L2-NORM 
          0                 1           2             4    7     1       0.1166192726E-01       4    7    1         0.6111353773E+00      0.1618761921E+01
          0                 2           2             4    7     1      -0.1133775214E-02       4    7    1        -0.6108046039E-01      0.1618244374E+00
          0                 3           1             4    7     1       0.7714771021E-04       4    7    1         0.4272399636E-02      0.1132267168E-01

    ------------------------------------------------
       NWT REQUIRED            3 OUTER ITERATIONS 
       AND A TOTAL OF          5 INNER ITERATIONS.
    ------------------------------------------------

 NO OUTPUT CONTROL FOR STRESS PERIOD   15   TIME STEP   11
 
 SOLVING FOR HEAD 
                                                   Max.-Head-Change                         Max.-Flux-Residual
  Residual-Control   Outer-Iter.   Inner-Iter.     Column Row Layer    Maximum-Head-Change  Column Row Layer    Maximum-Flux-Residual          L2-NORM 
          0                 1           2             4    7     1       0.1156320258E-01       4    7    1         0.6059419532E+00      0.1607120507E+01
          0                 2           2             4    7     1      -0.1124177140E-02       4    7    1        -0.6056139600E-01      0.1606607071E+00
          0                 3           1             4    7     1       0.7649460890E-04       4    7    1         0.4236092523E-02      0.1124125743E-01

    ------------------------------------------------
       NWT REQUIRED            3 OUTER ITERATIONS 
       AND A TOTAL OF          5 INNER ITERATIONS.
    ------------------------------------------------

 NO OUTPUT CONTROL FOR STRESS PERIOD   15   TIME STEP   12
 
 SOLVING FOR HEAD 
                                                   Max.-Head-Change                         Max.-Flux-Residual
  Residual-Control   Outer-Iter.   Inner-Iter.     Column Row Layer    Maximum-Head-Change  Column Row Layer    Maximum-Flux-Residual          L2-NORM 
          0                 1           2             4    7     1       0.1146561312E-01       4    7    1         0.6008084762E+00      0.1595613359E+01
          0                 2           2             4    7     1      -0.1114689434E-02       4    7    1        -0.6004832318E-01      0.1595103883E+00
          0                 3           1             4    7     1       0.7584901805E-04       4    7    1         0.4200204505E-02      0.1116076023E-01

    ------------------------------------------------
       NWT REQUIRED            3 OUTER ITERATIONS 
       AND A TOTAL OF          5 INNER ITERATIONS.
    ------------------------------------------------

 NO OUTPUT CONTROL FOR STRESS PERIOD   15   TIME STEP   13
 
 SOLVING FOR HEAD 
                                                   Max.-Head-Change                         Max.-Flux-Residual
  Residual-Control   Outer-Iter.   Inner-Iter.     Column Row Layer    Maximum-Head-Change  Column Row Layer    Maximum-Flux-Residual          L2-NORM 
          0                 1           2             4    7     1       0.1136927587E-01       4    7    1         0.5957412240E+00      0.1584235998E+01
          0                 2           2             4    7     1      -0.1105323470E-02       4    7    1        -0.5954186936E-01      0.1583729042E+00
          0                 3           1             4    7     1       0.7521171054E-04       4    7    1         0.4164779454E-02      0.1108118238E-01

    ------------------------------------------------
       NWT REQUIRED            3 OUTER ITERATIONS 
       AND A TOTAL OF          5 INNER ITERATIONS.
    ------------------------------------------------

 NO OUTPUT CONTROL FOR STRESS PERIOD   15   TIME STEP   14
 
 SOLVING FOR HEAD 
                                                   Max.-Head-Change                         Max.-Flux-Residual
  Residual-Control   Outer-Iter.   Inner-Iter.     Column Row Layer    Maximum-Head-Change  Column Row Layer    Maximum-Flux-Residual          L2-NORM 
          0                 1           2             4    7     1       0.1127416213E-01       4    7    1         0.5907388972E+00      0.1572977684E+01
          0                 2           2             4    7     1      -0.1096076456E-02       4    7    1        -0.5904190467E-01      0.1572475828E+00
          0                 3           1             4    7     1       0.7458249690E-04       4    7    1         0.4129808298E-02      0.1100245770E-01

    ------------------------------------------------
       NWT REQUIRED            3 OUTER ITERATIONS 
       AND A TOTAL OF          5 INNER ITERATIONS.
    ------------------------------------------------

 NO OUTPUT CONTROL FOR STRESS PERIOD   15   TIME STEP   15
 
 SOLVING FOR HEAD 
                                                   Max.-Head-Change                         Max.-Flux-Residual
  Residual-Control   Outer-Iter.   Inner-Iter.     Column Row Layer    Maximum-Head-Change  Column Row Layer    Maximum-Flux-Residual          L2-NORM 
          0                 1           2             4    7     1       0.1118011229E-01       4    7    1         0.5857926406E+00      0.1561855553E+01
          0                 2           2             4    7     1      -0.1086932876E-02       4    7    1        -0.5854754403E-01      0.1561357477E+00
          0                 3           1             4    7     1       0.7396032192E-04       4    7    1         0.4095229143E-02      0.1092466693E-01

    ------------------------------------------------
       NWT REQUIRED            3 OUTER ITERATIONS 
       AND A TOTAL OF          5 INNER ITERATIONS.
    ------------------------------------------------

 NO OUTPUT CONTROL FOR STRESS PERIOD   15   TIME STEP   16
 
 SOLVING FOR HEAD 
                                                   Max.-Head-Change                         Max.-Flux-Residual
  Residual-Control   Outer-Iter.   Inner-Iter.     Column Row Layer    Maximum-Head-Change  Column Row Layer    Maximum-Flux-Residual          L2-NORM 
          0                 1           2             4    7     1       0.1108711286E-01       4    7    1         0.5809015452E+00      0.1550852470E+01
          0                 2           2             4    7     1      -0.1077891418E-02       4    7    1        -0.5805869660E-01      0.1550358145E+00
          0                 3           1             4    7     1       0.7334509578E-04       4    7    1         0.4061035628E-02      0.1084768835E-01

    ------------------------------------------------
       NWT REQUIRED            3 OUTER ITERATIONS 
       AND A TOTAL OF          5 INNER ITERATIONS.
    ------------------------------------------------

 NO OUTPUT CONTROL FOR STRESS PERIOD   15   TIME STEP   17
 
 SOLVING FOR HEAD 
                                                   Max.-Head-Change                         Max.-Flux-Residual
  Residual-Control   Outer-Iter.   Inner-Iter.     Column Row Layer    Maximum-Head-Change  Column Row Layer    Maximum-Flux-Residual          L2-NORM 
          0                 1           2             4    7     1       0.1099528033E-01       4    7    1         0.5760722786E+00      0.1539970917E+01
          0                 2           2             4    7     1      -0.1068963407E-02       4    7    1        -0.5757602878E-01      0.1539480157E+00
          0                 3           1             4    7     1       0.7273758886E-04       4    7    1         0.4027274336E-02      0.1077160091E-01

    ------------------------------------------------
       NWT REQUIRED            3 OUTER ITERATIONS 
       AND A TOTAL OF          5 INNER ITERATIONS.
    ------------------------------------------------

 NO OUTPUT CONTROL FOR STRESS PERIOD   15   TIME STEP   18
 
 SOLVING FOR HEAD 
                                                   Max.-Head-Change                         Max.-Flux-Residual
  Residual-Control   Outer-Iter.   Inner-Iter.     Column Row Layer    Maximum-Head-Change  Column Row Layer    Maximum-Flux-Residual          L2-NORM 
          0                 1           2             4    7     1       0.1090459142E-01       4    7    1         0.5713035137E+00      0.1529211673E+01
          0                 2           2             4    7     1      -0.1060146580E-02       4    7    1        -0.5709940793E-01      0.1528724507E+00
          0                 3           1             4    7     1       0.7213764768E-04       4    7    1         0.3993936037E-02      0.1069633571E-01

    ------------------------------------------------
       NWT REQUIRED            3 OUTER ITERATIONS 
       AND A TOTAL OF          5 INNER ITERATIONS.
    ------------------------------------------------

 NO OUTPUT CONTROL FOR STRESS PERIOD   15   TIME STEP   19
 
 SOLVING FOR HEAD 
                                                   Max.-Head-Change                         Max.-Flux-Residual
  Residual-Control   Outer-Iter.   Inner-Iter.     Column Row Layer    Maximum-Head-Change  Column Row Layer    Maximum-Flux-Residual          L2-NORM 
          0                 1           2             4    7     1       0.1081502760E-01       4    7    1         0.5665940435E+00      0.1518566285E+01
          0                 2           2             4    7     1      -0.1051439137E-02       4    7    1        -0.5662871344E-01      0.1518082697E+00
          0                 3           1             4    7     1       0.7154514940E-04       4    7    1         0.3961012271E-02      0.1062187580E-01

    ------------------------------------------------
       NWT REQUIRED            3 OUTER ITERATIONS 
       AND A TOTAL OF          5 INNER ITERATIONS.
    ------------------------------------------------

 NO OUTPUT CONTROL FOR STRESS PERIOD   15   TIME STEP   20
 
 SOLVING FOR HEAD 
                                                   Max.-Head-Change                         Max.-Flux-Residual
  Residual-Control   Outer-Iter.   Inner-Iter.     Column Row Layer    Maximum-Head-Change  Column Row Layer    Maximum-Flux-Residual          L2-NORM 
          0                 1           2             4    7     1       0.1072642938E-01       4    7    1         0.5619355407E+00      0.1508042744E+01
          0                 2           2             4    7     1      -0.1042825568E-02       4    7    1        -0.5616311299E-01      0.1507562642E+00
          0                 3           1             4    7     1       0.7095903905E-04       4    7    1         0.3928444796E-02      0.1054828808E-01

    ------------------------------------------------
       NWT REQUIRED            3 OUTER ITERATIONS 
       AND A TOTAL OF          5 INNER ITERATIONS.
    ------------------------------------------------

 NO OUTPUT CONTROL FOR STRESS PERIOD   15   TIME STEP   21
 
 SOLVING FOR HEAD 
                                                   Max.-Head-Change                         Max.-Flux-Residual
  Residual-Control   Outer-Iter.   Inner-Iter.     Column Row Layer    Maximum-Head-Change  Column Row Layer    Maximum-Flux-Residual          L2-NORM 
          0                 1           2             4    7     1       0.1063891727E-01       4    7    1         0.5573344690E+00      0.1497625934E+01
          0                 2           2             4    7     1      -0.1034317594E-02       4    7    1        -0.5570325262E-01      0.1497149252E+00
          0                 3           1             4    7     1       0.7038011350E-04       4    7    1         0.3896278855E-02      0.1047545456E-01

    ------------------------------------------------
       NWT REQUIRED            3 OUTER ITERATIONS 
       AND A TOTAL OF          5 INNER ITERATIONS.
    ------------------------------------------------

 NO OUTPUT CONTROL FOR STRESS PERIOD   15   TIME STEP   22
 
 SOLVING FOR HEAD 
                                                   Max.-Head-Change                         Max.-Flux-Residual
  Residual-Control   Outer-Iter.   Inner-Iter.     Column Row Layer    Maximum-Head-Change  Column Row Layer    Maximum-Flux-Residual          L2-NORM 
          0                 1           2             4    7     1       0.1055233608E-01       4    7    1         0.5527823432E+00      0.1487323602E+01
          0                 2           2             4    7     1      -0.1025900124E-02       4    7    1        -0.5524828425E-01      0.1486850563E+00
          0                 3           1             4    7     1       0.6980734655E-04       4    7    1         0.3864455075E-02      0.1040334522E-01

    ------------------------------------------------
       NWT REQUIRED            3 OUTER ITERATIONS 
       AND A TOTAL OF          5 INNER ITERATIONS.
    ------------------------------------------------

 NO OUTPUT CONTROL FOR STRESS PERIOD   15   TIME STEP   23
 
 SOLVING FOR HEAD 
                                                   Max.-Head-Change                         Max.-Flux-Residual
  Residual-Control   Outer-Iter.   Inner-Iter.     Column Row Layer    Maximum-Head-Change  Column Row Layer    Maximum-Flux-Residual          L2-NORM 
          0                 1           2             4    7     1       0.1046680525E-01       4    7    1         0.5482858517E+00      0.1477129037E+01
          0                 2           2             4    7     1      -0.1017584770E-02       4    7    1        -0.5479887633E-01      0.1476659279E+00
          0                 3           1             4    7     1       0.6924152821E-04       4    7    1         0.3833020255E-02      0.1033204775E-01

    ------------------------------------------------
       NWT REQUIRED            3 OUTER ITERATIONS 
       AND A TOTAL OF          5 INNER ITERATIONS.
    ------------------------------------------------

 NO OUTPUT CONTROL FOR STRESS PERIOD   15   TIME STEP   24
 
 SOLVING FOR HEAD 
                                                   Max.-Head-Change                         Max.-Flux-Residual
  Residual-Control   Outer-Iter.   Inner-Iter.     Column Row Layer    Maximum-Head-Change  Column Row Layer    Maximum-Flux-Residual          L2-NORM 
          0                 1           2             4    7     1       0.1038230901E-01       4    7    1         0.5438438192E+00      0.1467046126E+01
          0                 2           2             4    7     1      -0.1009370002E-02       4    7    1        -0.5435491148E-01      0.1466579961E+00
          0                 3           1             4    7     1       0.6868255399E-04       4    7    1         0.3801966136E-02      0.1026153142E-01

    ------------------------------------------------
       NWT REQUIRED            3 OUTER ITERATIONS 
       AND A TOTAL OF          5 INNER ITERATIONS.
    ------------------------------------------------

 NO OUTPUT CONTROL FOR STRESS PERIOD   15   TIME STEP   25
 
 SOLVING FOR HEAD 
                                                   Max.-Head-Change                         Max.-Flux-Residual
  Residual-Control   Outer-Iter.   Inner-Iter.     Column Row Layer    Maximum-Head-Change  Column Row Layer    Maximum-Flux-Residual          L2-NORM 
          0                 1           2             4    7     1       0.1029882819E-01       4    7    1         0.5394554290E+00      0.1457076627E+01
          0                 2           2             4    7     1      -0.1001253953E-02       4    7    1        -0.5391630800E-01      0.1456613821E+00
          0                 3           1             4    7     1       0.6813029703E-04       4    7    1         0.3771287034E-02      0.1019180827E-01

    ------------------------------------------------
       NWT REQUIRED            3 OUTER ITERATIONS 
       AND A TOTAL OF          5 INNER ITERATIONS.
    ------------------------------------------------

 NO OUTPUT CONTROL FOR STRESS PERIOD   15   TIME STEP   26
 
 SOLVING FOR HEAD 
                                                   Max.-Head-Change                         Max.-Flux-Residual
  Residual-Control   Outer-Iter.   Inner-Iter.     Column Row Layer    Maximum-Head-Change  Column Row Layer    Maximum-Flux-Residual          L2-NORM 
          0                 1           2             4    7     1       0.1021620757E-01       4    7    1         0.5351123185E+00      0.1447202953E+01
          0                 2           2             4    7     1      -0.9932215338E-03       4    7    1        -0.5348223008E-01      0.1446743670E+00
          0                 3           1             4    7     1       0.6758373135E-04       4    7    1         0.3740924513E-02      0.1012273869E-01

    ------------------------------------------------
       NWT REQUIRED            3 OUTER ITERATIONS 
       AND A TOTAL OF          5 INNER ITERATIONS.
    ------------------------------------------------

 NO OUTPUT CONTROL FOR STRESS PERIOD   15   TIME STEP   27
 
 SOLVING FOR HEAD 
                                                   Max.-Head-Change                         Max.-Flux-Residual
  Residual-Control   Outer-Iter.   Inner-Iter.     Column Row Layer    Maximum-Head-Change  Column Row Layer    Maximum-Flux-Residual          L2-NORM 
          0                 1           2             4    7     1       0.1013470143E-01       4    7    1         0.5308285440E+00      0.1437432525E+01
          0                 2           2             4    7     1      -0.9852974657E-03       4    7    1        -0.5305408266E-01      0.1436976694E+00
          0                 3           1             4    7     1       0.6704453768E-04       4    7    1         0.3710976787E-02      0.1005442870E-01

    ------------------------------------------------
       NWT REQUIRED            3 OUTER ITERATIONS 
       AND A TOTAL OF          5 INNER ITERATIONS.
    ------------------------------------------------

 NO OUTPUT CONTROL FOR STRESS PERIOD   15   TIME STEP   28
 
 SOLVING FOR HEAD 
                                                   Max.-Head-Change                         Max.-Flux-Residual
  Residual-Control   Outer-Iter.   Inner-Iter.     Column Row Layer    Maximum-Head-Change  Column Row Layer    Maximum-Flux-Residual          L2-NORM 
          0                 1           2             4    7     1       0.1005414266E-01       4    7    1         0.5265878168E+00      0.1553090759E+01
          0                 2           2             4    7     1      -0.9774654937E-03       4    7    1        -0.5263023721E-01      0.1546088435E+00
          0                 3           1             4    7     1       0.6651161018E-04       4    7    1         0.3681329959E-02      0.1075809744E-01

    ------------------------------------------------
       NWT REQUIRED            3 OUTER ITERATIONS 
       AND A TOTAL OF          5 INNER ITERATIONS.
    ------------------------------------------------

 NO OUTPUT CONTROL FOR STRESS PERIOD   15   TIME STEP   29
 
 SOLVING FOR HEAD 
                                                   Max.-Head-Change                         Max.-Flux-Residual
  Residual-Control   Outer-Iter.   Inner-Iter.     Column Row Layer    Maximum-Head-Change  Column Row Layer    Maximum-Flux-Residual          L2-NORM 
          0                 1           2             4   13     1       0.2962073246E-01       4   13    1         0.1715734718E+01      0.3358466676E+01
          0                 2           2             4   13     1      -0.2848870395E-02       4   13    1        -0.1696740772E+00      0.3270423633E+00
          0                 3           2             4   13     1       0.1909698635E-03       4   13    1         0.1169465610E-01      0.2207588925E-01
          0                 4           1             4   13     1      -0.7396135638E-05       4   13    1        -0.4657429481E-03      0.8503774279E-03

    ------------------------------------------------
       NWT REQUIRED            4 OUTER ITERATIONS 
       AND A TOTAL OF          7 INNER ITERATIONS.
    ------------------------------------------------

 NO OUTPUT CONTROL FOR STRESS PERIOD   15   TIME STEP   30



 STREAM LISTING     PERIOD     15   STEP       30

 LAYER ROW COL. STREAM  RCH.  FLOW INTO     FLOW TO   FLOW OUT OF   OVRLND.     DIRECT     STREAM       STREAM     STREAM     STREAM   STREAMBED  STREAMBED
                SEG.NO.  NO.  STRM. RCH.    AQUIFER    STRM. RCH.    RUNOFF     PRECIP       ET          HEAD       DEPTH      WIDTH   CONDCTNC.   GRADIENT

   1    1    1     1     1    9.8001E+01  4.7086E-01   9.7531E+01  0.000E+00  0.000E+00  0.000E+00  1.09484E+03  1.792E+00  2.184E+01  9.826E-02  1.597E+00
   1    2    2     1     2    9.7531E+01  7.3063E-01   9.6800E+01  0.000E+00  0.000E+00  0.000E+00  1.08985E+03  1.790E+00  2.179E+01  1.525E-01  1.597E+00
   1    3    3     1     3    9.6800E+01  6.2448E-01   9.6176E+01  0.000E+00  0.000E+00  0.000E+00  1.08421E+03  1.787E+00  2.174E+01  1.304E-01  1.596E+00
   1    3    4     1     4    9.6176E+01  5.7618E-01   9.5599E+01  0.000E+00  0.000E+00  0.000E+00  1.07919E+03  1.785E+00  2.170E+01  1.204E-01  1.595E+00
   1    4    5     2     1    9.3599E+01  4.4168E-01   9.3158E+01  0.000E+00  0.000E+00  0.000E+00  1.07460E+03  2.663E+00  1.200E+01  7.800E-02  1.888E+00
   1    5    6     2     2    9.3158E+01  3.3935E-01   9.2818E+01  0.000E+00  0.000E+00  0.000E+00  1.06917E+03  2.656E+00  1.200E+01  6.000E-02  1.885E+00
   1    6    6     2     3    9.2818E+01  3.3900E-01   9.2479E+01  0.000E+00  0.000E+00  0.000E+00  1.06444E+03  2.650E+00  1.200E+01  6.000E-02  1.883E+00
   1    7    6     2     4    9.2479E+01  3.3865E-01   9.2141E+01  0.000E+00  0.000E+00  0.000E+00  1.05972E+03  2.644E+00  1.200E+01  6.000E-02  1.881E+00
   1    8    6     2     5    9.2141E+01  3.3830E-01   9.1802E+01  0.000E+00  0.000E+00  0.000E+00  1.05500E+03  2.638E+00  1.200E+01  6.000E-02  1.879E+00
   1    3    5     3     1    2.0000E+00  2.8252E-01   1.7175E+00  0.000E+00  0.000E+00  0.000E+00  1.07555E+03  1.909E+00  9.636E+00  7.227E-02  1.955E+00
   1    3    6     3     2    1.7175E+00  2.4905E-01   1.4684E+00  0.000E+00  0.000E+00  0.000E+00  1.07264E+03  1.727E+00  8.909E+00  6.682E-02  1.864E+00
   1    3    7     3     3    1.4684E+00  1.9718E-01   1.2712E+00  0.000E+00  0.000E+00  0.000E+00  1.06987E+03  1.555E+00  8.218E+00  5.547E-02  1.777E+00
   1    4    8     3     4    1.2712E+00  2.2567E-01   1.0456E+00  0.000E+00  0.000E+00  0.000E+00  1.06682E+03  1.364E+00  7.455E+00  6.709E-02  1.682E+00
   1    5    8     3     5    1.0456E+00  1.5790E-01   8.8768E-01  0.000E+00  0.000E+00  0.000E+00  1.06362E+03  1.164E+00  6.655E+00  4.991E-02  1.582E+00
   1    6    8     3     6    8.8768E-01  5.5980E-02   8.3170E-01  0.000E+00  0.000E+00  0.000E+00  1.06158E+03  1.036E+00  6.145E+00  1.844E-02  1.518E+00
   1    5   10     4     1    1.0000E+01  9.0919E-02   9.9091E+00  0.000E+00  0.000E+00  0.000E+00  1.07836E+03  6.368E-01  1.000E+01  2.500E-02  1.212E+00
   1    5    9     4     2    9.9091E+00  1.8158E-01   9.7275E+00  0.000E+00  0.000E+00  0.000E+00  1.07154E+03  6.315E-01  1.000E+01  5.000E-02  1.211E+00
   1    6    8     4     3    9.7275E+00  1.2689E-01   9.6006E+00  0.000E+00  0.000E+00  0.000E+00  1.06381E+03  6.256E-01  1.000E+01  3.500E-02  1.209E+00
   1    6    8     5     1    1.0432E+01  2.2686E-01   1.0205E+01  0.000E+00  0.000E+00  0.000E+00  1.05868E+03  6.790E-01  1.542E+01  6.166E-02  1.226E+00
   1    7    7     5     2    1.0205E+01  2.7894E-01   9.9265E+00  0.000E+00  0.000E+00  0.000E+00  1.05417E+03  6.732E-01  1.519E+01  7.594E-02  1.224E+00
   1    8    7     5     3    9.9265E+00  1.9221E-01   9.7343E+00  0.000E+00  0.000E+00  0.000E+00  1.04992E+03  6.676E-01  1.497E+01  5.241E-02  1.223E+00
   1    8    6     5     4    9.7343E+00  1.3577E-01   9.5985E+00  0.000E+00  0.000E+00  0.000E+00  1.04691E+03  6.637E-01  1.482E+01  3.706E-02  1.221E+00
   1    9    6     6     1    1.0140E+02  3.4955E-01   1.0105E+02  0.000E+00  0.000E+00  0.000E+00  1.04555E+03  2.826E+00  1.200E+01  6.000E-02  1.942E+00
   1   10    7     6     2    1.0105E+02  3.4920E-01   1.0070E+02  0.000E+00  0.000E+00  0.000E+00  1.04100E+03  2.820E+00  1.200E+01  6.000E-02  1.940E+00
   1   11    7     6     3    1.0070E+02  3.4885E-01   1.0035E+02  0.000E+00  0.000E+00  0.000E+00  1.03645E+03  2.814E+00  1.200E+01  6.000E-02  1.938E+00
   1   12    7     6     4    1.0035E+02  3.4850E-01   1.0000E+02  0.000E+00  0.000E+00  0.000E+00  1.03190E+03  2.808E+00  1.200E+01  6.000E-02  1.936E+00
   1   13    7     6     5    1.0000E+02  3.8606E-02   9.9966E+01  0.000E+00  0.000E+00  0.000E+00  1.02871E+03  2.805E+00  1.200E+01  2.400E-02  5.362E-01
   1   14    9     7     1    1.5000E+02  1.3296E+00   1.4867E+02  0.000E+00  0.000E+00  0.000E+00  1.03987E+03  2.288E+00  5.529E+01  5.593E-01  7.924E-01
   1   13    8     7     2    1.4867E+02  1.8142E+00   1.4686E+02  0.000E+00  0.000E+00  0.000E+00  1.03478E+03  2.279E+00  5.526E+01  6.148E-01  9.837E-01
   1   13    7     7     3    1.4686E+02  1.4433E+00   1.4541E+02  0.000E+00  0.000E+00  0.000E+00  1.02969E+03  2.271E+00  5.522E+01  5.585E-01  8.615E-01
   1   13    6     8     1    2.4538E+02  1.2503E+00   2.4413E+02  0.000E+00  0.000E+00  0.000E+00  1.02526E+03  3.385E+00  4.908E+01  5.001E-01  8.334E-01
   1   13    5     8     2    2.4413E+02  4.0509E-01   2.4372E+02  0.000E+00  0.000E+00  0.000E+00  1.01901E+03  3.380E+00  4.901E+01  4.995E-01  2.703E-01
   1   13    4     8     3    2.4372E+02 -8.4097E-01   2.4456E+02  0.000E+00  0.000E+00  0.000E+00  1.01276E+03  3.381E+00  4.903E+01  4.996E+00 -5.611E-02
   1   13    3     8     4    2.4456E+02 -2.2508E+00   2.4682E+02  0.000E+00  0.000E+00  0.000E+00  1.00651E+03  3.389E+00  4.915E+01  5.008E+00 -1.498E-01
   1   13    2     8     5    2.4682E+02 -1.0723E+00   2.4789E+02  0.000E+00  0.000E+00  0.000E+00  1.00027E+03  3.398E+00  4.927E+01  5.021E+00 -7.119E-02
   1   13    1     8     6    2.4789E+02 -1.1111E+00   2.4900E+02  0.000E+00  0.000E+00  0.000E+00  9.95279E+02  3.404E+00  4.935E+01  3.017E+00 -1.227E-01





UNSATURATED ZONE PACKAGE VOLUMETRIC BUDGET FOR  TIME STEP    30 STRESS PERIOD   15
  ------------------------------------------------------------------------------



     CUMULATIVE VOLUMES      L**3       RATES FOR THIS TIME STEP      L**3/T
     ------------------                 ------------------------

           IN:                                      IN:
           ---                                      ---
        INFILTRATION =   507123045.0450          INFILTRATION =           0.8475

          OUT:                                     OUT:
          ----                                     ----
              UZF ET =   434001089.2535                UZF ET =           0.7500
        UZF RECHARGE =    72024322.7781          UZF RECHARGE =           0.0001

            IN - OUT =     1097633.0135              IN - OUT =       9.7371E-02

          STORAGE:                                 STORAGE:
          --------                                 --------
      STORAGE CHANGE =     1097626.9990        STORAGE CHANGE =       9.7371E-02

 PERCENT DISCREPANCY IS DIFFERENCE BETWEEN IN-OUT MINUS CHANGE IN STORAGE
 DIVIDED BY THE AVERAGE OF IN AND OUT TIMES 100

 PERCENT DISCREPANCY =           0.00     PERCENT DISCREPANCY =           0.00






1
  VOLUMETRIC BUDGET FOR AGRICULTURAL FIELDS AT  END OF TIME STEP   30, STRESS PERIOD  15
  ------------------------------------------------------------------------------

     CUMULATIVE VOLUMES      L**3       RATES FOR THIS TIME STEP      L**3/T
     ------------------                 ------------------------

           IN:                                      IN:
           ---                                      ---
           AG WELLS      =   475844416.0000             AG WELLS      =           0.0000
      DIVERSION SEGMENTS =           0.0000        DIVERSION SEGMENTS =           0.0000
           GW IRRIGATION =           0.0000             GW IRRIGATION =           0.0000
           SW IRRIGATION =           0.0000             SW IRRIGATION =           0.0000
        SYSTEM LOSSES GW =           0.0000          SYSTEM LOSSES GW =           0.0000
        SYSTEM LOSSES SW =           0.0000          SYSTEM LOSSES SW =           0.0000

                TOTAL IN =   475844416.0000                  TOTAL IN =           0.0000

          OUT:                                     OUT:
          ----                                     ----
           AG WELLS      =           0.0000             AG WELLS      =           0.0000
      DIVERSION SEGMENTS =           0.0000        DIVERSION SEGMENTS =           0.0000
           GW IRRIGATION =   475844416.0000             GW IRRIGATION =           0.0000
           SW IRRIGATION =           0.0000             SW IRRIGATION =           0.0000
        SYSTEM LOSSES GW =           0.0000          SYSTEM LOSSES GW =           0.0000
        SYSTEM LOSSES SW =           0.0000          SYSTEM LOSSES SW =           0.0000

               TOTAL OUT =   475844416.0000                 TOTAL OUT =           0.0000

                IN - OUT =           0.0000                  IN - OUT =           0.0000

     PERCENT DISCREPANCY =           0.00         PERCENT DISCREPANCY =           0.00



1
  VOLUMETRIC BUDGET FOR ENTIRE MODEL AT END OF TIME STEP   30, STRESS PERIOD  15
  ------------------------------------------------------------------------------

     CUMULATIVE VOLUMES      L**3       RATES FOR THIS TIME STEP      L**3/T
     ------------------                 ------------------------

           IN:                                      IN:
           ---                                      ---
             STORAGE     =   625345920.0000               STORAGE     =           3.6366
       CONSTANT HEAD     =           0.0000         CONSTANT HEAD     =           0.0000
     HEAD DEP BOUNDS     =    10533752.0000       HEAD DEP BOUNDS     =           0.2853
      STREAM LEAKAGE     =   454680768.0000        STREAM LEAKAGE     =          14.2779
        UZF RECHARGE     =    72024344.0000          UZF RECHARGE     =       1.2874E-04
               GW ET     =           0.0000                 GW ET     =           0.0000
     SURFACE LEAKAGE     =           0.0000       SURFACE LEAKAGE     =           0.0000
           AG WELLS      =           0.0000             AG WELLS      =           0.0000

                TOTAL IN =  1162584832.0000                  TOTAL IN =          18.1999

          OUT:                                     OUT:
          ----                                     ----
             STORAGE     =   277334144.0000               STORAGE     =          12.6341
       CONSTANT HEAD     =           0.0000         CONSTANT HEAD     =           0.0000
     HEAD DEP BOUNDS     =    10850449.0000       HEAD DEP BOUNDS     =           0.2906
      STREAM LEAKAGE     =   384804096.0000        STREAM LEAKAGE     =           5.2752
        UZF RECHARGE     =           0.0000          UZF RECHARGE     =           0.0000
               GW ET     =    13750699.0000                 GW ET     =           0.0000
     SURFACE LEAKAGE     =           0.0000       SURFACE LEAKAGE     =           0.0000
           AG WELLS      =   475844416.0000             AG WELLS      =           0.0000

               TOTAL OUT =  1162583808.0000                 TOTAL OUT =          18.1999

                IN - OUT =        1024.0000                  IN - OUT =       3.2425E-05

     PERCENT DISCREPANCY =           0.00         PERCENT DISCREPANCY =           0.00






         TIME SUMMARY AT END OF TIME STEP   30 IN STRESS PERIOD   15
                    SECONDS     MINUTES      HOURS       DAYS        YEARS
                    -----------------------------------------------------------
   TIME STEP LENGTH  87667.      1461.1      24.352      1.0147     2.77799E-03
 STRESS PERIOD TIME 2.63000E+06  43833.      730.56      30.440     8.33397E-02
         TOTAL TIME 3.69063E+07 6.15106E+05  10252.      427.16      1.1695    
1
1
                            STRESS PERIOD NO.   16, LENGTH =   2630000.    
                            -----------------------------------------------

                              NUMBER OF TIME STEPS =    30

                               MULTIPLIER FOR DELT =     1.000

                            INITIAL TIME STEP SIZE =   87666.66    

 REUSING NON-PARAMETER GHB CELLS FROM LAST STRESS PERIOD

      2 GHB CELLS

 REUSING STREAM SEGMENT DATA FROM LAST STRESS PERIOD



            AREAL INFILTRATION RATE
 READING ON UNIT   19 WITH FORMAT: (FREE)              

            1           2           3           4           5           6           7           8           9          10
 ........................................................................................................................
   1   1.0000E-10  2.0000E-10   0.000       0.000       0.000       0.000       0.000       0.000       0.000       0.000    
   2   2.0000E-10  1.0000E-10  2.0000E-10   0.000       0.000      8.0000E-10  8.0000E-10  5.0000E-10   0.000       0.000    
   3    0.000      5.0000E-10  1.0000E-10  1.0000E-10  8.0000E-10  8.0000E-10  5.0000E-10  5.0000E-10   0.000       0.000    
   4   8.0000E-10  5.0000E-10  1.0000E-10  1.0000E-10  1.0000E-10  1.0000E-10  1.0000E-10  1.0000E-10  2.0000E-10   0.000    
   5   8.0000E-10  5.0000E-10  1.0000E-10  1.0000E-10  1.0000E-10  1.0000E-10  1.0000E-10  1.0000E-10  1.0000E-10  1.0000E-10
   6   8.0000E-10  5.0000E-10  5.0000E-10  2.0000E-10  2.0000E-10  1.0000E-10  1.0000E-10  1.0000E-10  1.0000E-10  5.0000E-10
   7   8.0000E-10  5.0000E-10  5.0000E-10  2.0000E-10  2.0000E-10  1.0000E-10  1.0000E-10  2.0000E-10  2.0000E-10   0.000    
   8    0.000      5.0000E-10  5.0000E-10  2.0000E-10  2.0000E-10  1.0000E-10  1.0000E-10  2.0000E-10  5.0000E-10   0.000    
   9    0.000      5.0000E-10  5.0000E-10  2.0000E-10  2.0000E-10  1.0000E-10  1.0000E-10  2.0000E-10  5.0000E-10   0.000    
  10    0.000      5.0000E-10  5.0000E-10  2.0000E-10  2.0000E-10  1.0000E-10  1.0000E-10  2.0000E-10  5.0000E-10  8.0000E-10
  11    0.000      1.0000E-10  1.0000E-10  1.0000E-10  1.0000E-10  1.0000E-10  1.0000E-10  2.0000E-10  5.0000E-10   0.000    
  12   1.0000E-10  1.0000E-10  1.0000E-10  1.0000E-10  1.0000E-10  1.0000E-10  1.0000E-10  1.0000E-10  2.0000E-10   0.000    
  13   1.0000E-10  1.0000E-10  2.0000E-10  2.0000E-10  2.0000E-10  2.0000E-10  2.0000E-10  1.0000E-10  1.0000E-10   0.000    
  14    0.000      2.0000E-10  5.0000E-10  5.0000E-10  5.0000E-10  5.0000E-10  5.0000E-10  2.0000E-10  1.0000E-10   0.000    
  15    0.000       0.000      8.0000E-10  8.0000E-10  8.0000E-10  8.0000E-10   0.000       0.000       0.000       0.000    

                  ET RATE =  5.000000E-10

 USING ET EXTINCTION DEPTH FROM PREVIOUS STRESS PERIOD. CURRENT PERIOD IS:      16

 USING EXTINCTION WATER CONTENT FROM PREVIOUS STRESS PERIOD. CURRENT PERIOD IS:      16

 USING AIR ENTRY PRESSURE FROM PREVIOUS STRESS PERIOD. CURRENT PERIOD IS:      16

 USING ROOT PRESSURE HEAD FROM PREVIOUS STRESS PERIOD. CURRENT PERIOD IS:      16

 USING ROOT ACTIVITY FROM PREVIOUS STRESS PERIOD. CURRENT PERIOD IS:      16

 PROCESSING AG STRESS PERIOD DATA

 READING AG STRESS PERIOD DATA

 READING IRRIGATION WELL

 END PROCESSING AG STRESS PERIOD DATA OPTIONS
 
 SOLVING FOR HEAD 
                                                   Max.-Head-Change                         Max.-Flux-Residual
  Residual-Control   Outer-Iter.   Inner-Iter.     Column Row Layer    Maximum-Head-Change  Column Row Layer    Maximum-Flux-Residual          L2-NORM 
          0                 1           2             4   13     1       0.2659668557E-01       4   13    1         0.1539789978E+01      0.3129561784E+01
          0                 2           2             4   13     1      -0.2558034876E-02       4   13    1        -0.1522741051E+00      0.3050914622E+00
          0                 3           2             4   13     1       0.1714715395E-03       4   13    1         0.1049512771E-01      0.2062711245E-01
          0                 4           1             4   13     1      -0.6633122286E-05       4   13    1        -0.4174555525E-03      0.7973405417E-03

    ------------------------------------------------
       NWT REQUIRED            4 OUTER ITERATIONS 
       AND A TOTAL OF          7 INNER ITERATIONS.
    ------------------------------------------------

 NO OUTPUT CONTROL FOR STRESS PERIOD   16   TIME STEP    1
 
 SOLVING FOR HEAD 
                                                   Max.-Head-Change                         Max.-Flux-Residual
  Residual-Control   Outer-Iter.   Inner-Iter.     Column Row Layer    Maximum-Head-Change  Column Row Layer    Maximum-Flux-Residual          L2-NORM 
          0                 1           2             2   13     1       0.2423925289E-01       4   13    1         0.1382594391E+01      0.2925509758E+01
          0                 2           2             4   13     1      -0.2298128203E-02       4   13    1        -0.1367284327E+00      0.2855923221E+00
          0                 3           2             4   13     1       0.1540611747E-03       4   13    1         0.9424333486E-02      0.1934162891E-01
          0                 4           1             4   13     1      -0.5970897046E-05       4   13    1        -0.3755751395E-03      0.7496722857E-03

    ------------------------------------------------
       NWT REQUIRED            4 OUTER ITERATIONS 
       AND A TOTAL OF          7 INNER ITERATIONS.
    ------------------------------------------------

 NO OUTPUT CONTROL FOR STRESS PERIOD   16   TIME STEP    2
 
 SOLVING FOR HEAD 
                                                   Max.-Head-Change                         Max.-Flux-Residual
  Residual-Control   Outer-Iter.   Inner-Iter.     Column Row Layer    Maximum-Head-Change  Column Row Layer    Maximum-Flux-Residual          L2-NORM 
          0                 1           2             2   13     1       0.2225982074E-01       2   13    1         0.1263678932E+01      0.2743776770E+01
          0                 2           2             4   13     1      -0.2065660124E-02       4   13    1        -0.1228304041E+00      0.2681375203E+00
          0                 3           2             4   13     1       0.1384573276E-03       4   13    1         0.8465112403E-02      0.1819032202E-01
          0                 4           1             4   13     1      -0.5361934669E-05       4   13    1        -0.3370921258E-03      0.7072641859E-03

    ------------------------------------------------
       NWT REQUIRED            4 OUTER ITERATIONS 
       AND A TOTAL OF          7 INNER ITERATIONS.
    ------------------------------------------------

 NO OUTPUT CONTROL FOR STRESS PERIOD   16   TIME STEP    3
 
 SOLVING FOR HEAD 
                                                   Max.-Head-Change                         Max.-Flux-Residual
  Residual-Control   Outer-Iter.   Inner-Iter.     Column Row Layer    Maximum-Head-Change  Column Row Layer    Maximum-Flux-Residual          L2-NORM 
          0                 1           2             2   13     1       0.2044249326E-01       2   13    1         0.1160405431E+01      0.2582084580E+01
          0                 2           2             2   13     1      -0.1892667364E-02       4   13    1        -0.1105475850E+00      0.2527297172E+00
          0                 3           2             4   13     1       0.1246409613E-03       4   13    1         0.7617796406E-02      0.1717708292E-01
          0                 4           1             4   13     1      -0.4830076125E-05       4   13    1        -0.3035394884E-03      0.6702910341E-03

    ------------------------------------------------
       NWT REQUIRED            4 OUTER ITERATIONS 
       AND A TOTAL OF          7 INNER ITERATIONS.
    ------------------------------------------------

 NO OUTPUT CONTROL FOR STRESS PERIOD   16   TIME STEP    4
 
 SOLVING FOR HEAD 
                                                   Max.-Head-Change                         Max.-Flux-Residual
  Residual-Control   Outer-Iter.   Inner-Iter.     Column Row Layer    Maximum-Head-Change  Column Row Layer    Maximum-Flux-Residual          L2-NORM 
          0                 1           2             2   13     1       0.1877414165E-01       2   13    1         0.1065599046E+01      0.2438416183E+01
          0                 2           2             2   13     1      -0.1739451268E-02       2   13    1        -0.1014877676E+00      0.2389328279E+00
          0                 3           1             4   13     1       0.1120004616E-03       4   13    1         0.6840958547E-02      0.1627018537E-01
          0                 4           1             4   13     1      -0.4333299033E-05       4   13    1        -0.2721513210E-03      0.6361274996E-03

    ------------------------------------------------
       NWT REQUIRED            4 OUTER ITERATIONS 
       AND A TOTAL OF          6 INNER ITERATIONS.
    ------------------------------------------------

 NO OUTPUT CONTROL FOR STRESS PERIOD   16   TIME STEP    5
 
 SOLVING FOR HEAD 
                                                   Max.-Head-Change                         Max.-Flux-Residual
  Residual-Control   Outer-Iter.   Inner-Iter.     Column Row Layer    Maximum-Head-Change  Column Row Layer    Maximum-Flux-Residual          L2-NORM 
          0                 1           2             2   13     1       0.1724266353E-01       2   13    1         0.9785724191E+00      0.2310875971E+01
          0                 2           2             2   13     1      -0.1598628051E-02       2   13    1        -0.9326118766E-01      0.2267484854E+00
          0                 3           1             2   13     1       0.1016145290E-03       4   13    1         0.6155380624E-02      0.1547053693E-01
          0                 4           1             4   13     1      -0.3895234484E-05       4   13    1        -0.2444661313E-03      0.6070262799E-03

    ------------------------------------------------
       NWT REQUIRED            4 OUTER ITERATIONS 
       AND A TOTAL OF          6 INNER ITERATIONS.
    ------------------------------------------------

 NO OUTPUT CONTROL FOR STRESS PERIOD   16   TIME STEP    6
 
 SOLVING FOR HEAD 
                                                   Max.-Head-Change                         Max.-Flux-Residual
  Residual-Control   Outer-Iter.   Inner-Iter.     Column Row Layer    Maximum-Head-Change  Column Row Layer    Maximum-Flux-Residual          L2-NORM 
          0                 1           2             2   13     1       0.1583693892E-01       2   13    1         0.8986939826E+00      0.2197811512E+01
          0                 2           2             2   13     1      -0.1469194135E-02       2   13    1        -0.8570019846E-01      0.2159523555E+00
          0                 3           1             2   13     1       0.9347841944E-04       2   13    1         0.5604061625E-02      0.1476297257E-01

    ------------------------------------------------
       NWT REQUIRED            3 OUTER ITERATIONS 
       AND A TOTAL OF          5 INNER ITERATIONS.
    ------------------------------------------------

 NO OUTPUT CONTROL FOR STRESS PERIOD   16   TIME STEP    7
 
 SOLVING FOR HEAD 
                                                   Max.-Head-Change                         Max.-Flux-Residual
  Residual-Control   Outer-Iter.   Inner-Iter.     Column Row Layer    Maximum-Head-Change  Column Row Layer    Maximum-Flux-Residual          L2-NORM 
          0                 1           2             2   13     1       0.1454647301E-01       2   13    1         0.8253674444E+00      0.2097619060E+01
          0                 2           2             2   13     1      -0.1350252716E-02       2   13    1        -0.7875243166E-01      0.2063899522E+00
          0                 3           1             2   13     1       0.8596751423E-04       2   13    1         0.5153099142E-02      0.1413543080E-01

    ------------------------------------------------
       NWT REQUIRED            3 OUTER ITERATIONS 
       AND A TOTAL OF          5 INNER ITERATIONS.
    ------------------------------------------------

 NO OUTPUT CONTROL FOR STRESS PERIOD   16   TIME STEP    8
 
 SOLVING FOR HEAD 
                                                   Max.-Head-Change                         Max.-Flux-Residual
  Residual-Control   Outer-Iter.   Inner-Iter.     Column Row Layer    Maximum-Head-Change  Column Row Layer    Maximum-Flux-Residual          L2-NORM 
          0                 1           2             2   13     1       0.1336210551E-01       2   13    1         0.7580723182E+00      0.2008886934E+01
          0                 2           2             2   13     1      -0.1241015266E-02       2   13    1        -0.7237182454E-01      0.1979263044E+00
          0                 3           1             2   13     1       0.7910809669E-04       2   13    1         0.4741309648E-02      0.1358131884E-01

    ------------------------------------------------
       NWT REQUIRED            3 OUTER ITERATIONS 
       AND A TOTAL OF          5 INNER ITERATIONS.
    ------------------------------------------------

 NO OUTPUT CONTROL FOR STRESS PERIOD   16   TIME STEP    9
 
 SOLVING FOR HEAD 
                                                   Max.-Head-Change                         Max.-Flux-Residual
  Residual-Control   Outer-Iter.   Inner-Iter.     Column Row Layer    Maximum-Head-Change  Column Row Layer    Maximum-Flux-Residual          L2-NORM 
          0                 1           2             2   13     1       0.1227524654E-01       2   13    1         0.6963204758E+00      0.1930323933E+01
          0                 2           2             2   13     1      -0.1140628515E-02       2   13    1        -0.6650846714E-01      0.1904343105E+00
          0                 3           1             2   13     1       0.7275573307E-04       2   13    1         0.4359948067E-02      0.1309083175E-01

    ------------------------------------------------
       NWT REQUIRED            3 OUTER ITERATIONS 
       AND A TOTAL OF          5 INNER ITERATIONS.
    ------------------------------------------------

 NO OUTPUT CONTROL FOR STRESS PERIOD   16   TIME STEP   10
 
 SOLVING FOR HEAD 
                                                   Max.-Head-Change                         Max.-Flux-Residual
  Residual-Control   Outer-Iter.   Inner-Iter.     Column Row Layer    Maximum-Head-Change  Column Row Layer    Maximum-Flux-Residual          L2-NORM 
          0                 1           2             2   13     1       0.1127786133E-01       2   13    1         0.6396552494E+00      0.1860731085E+01
          0                 2           2             2   13     1      -0.1048435012E-02       2   13    1        -0.6112398864E-01      0.1837975140E+00
          0                 3           1             2   13     1       0.6691809428E-04       2   13    1         0.4009509591E-02      0.1265593269E-01

    ------------------------------------------------
       NWT REQUIRED            3 OUTER ITERATIONS 
       AND A TOTAL OF          5 INNER ITERATIONS.
    ------------------------------------------------

 NO OUTPUT CONTROL FOR STRESS PERIOD   16   TIME STEP   11
 
 SOLVING FOR HEAD 
                                                   Max.-Head-Change                         Max.-Flux-Residual
  Residual-Control   Outer-Iter.   Inner-Iter.     Column Row Layer    Maximum-Head-Change  Column Row Layer    Maximum-Flux-Residual          L2-NORM 
          0                 1           2             2   13     1       0.1036258193E-01       2   13    1         0.5876578357E+00      0.1799056215E+01
          0                 2           2             2   13     1      -0.9637637688E-03       2   13    1        -0.5617916528E-01      0.1779157764E+00
          0                 3           1             2   13     1       0.6154752274E-04       2   13    1         0.3687144395E-02      0.1227041425E-01

    ------------------------------------------------
       NWT REQUIRED            3 OUTER ITERATIONS 
       AND A TOTAL OF          5 INNER ITERATIONS.
    ------------------------------------------------

 NO OUTPUT CONTROL FOR STRESS PERIOD   16   TIME STEP   12
 
 SOLVING FOR HEAD 
                                                   Max.-Head-Change                         Max.-Flux-Residual
  Residual-Control   Outer-Iter.   Inner-Iter.     Column Row Layer    Maximum-Head-Change  Column Row Layer    Maximum-Flux-Residual          L2-NORM 
          0                 1           2             2   13     1       0.9522660108E-02       2   13    1         0.5399445559E+00      0.1744334907E+01
          0                 2           2             2   13     1      -0.8860131473E-03       2   13    1        -0.5163919402E-01      0.1726843344E+00
          0                 3           1             4    7     1       0.5987291769E-04       2   13    1         0.3392743017E-02      0.1191731139E-01

    ------------------------------------------------
       NWT REQUIRED            3 OUTER ITERATIONS 
       AND A TOTAL OF          5 INNER ITERATIONS.
    ------------------------------------------------

 NO OUTPUT CONTROL FOR STRESS PERIOD   16   TIME STEP   13
 
 SOLVING FOR HEAD 
                                                   Max.-Head-Change                         Max.-Flux-Residual
  Residual-Control   Outer-Iter.   Inner-Iter.     Column Row Layer    Maximum-Head-Change  Column Row Layer    Maximum-Flux-Residual          L2-NORM 
          0                 1           2             4    7     1       0.8986461026E-02       2   13    1         0.4961614182E+00      0.1695717881E+01
          0                 2           2             4    7     1      -0.8736647167E-03       2   13    1        -0.4746687285E-01      0.1680542437E+00
          0                 3           1             4    7     1       0.5944846134E-04       4    7    1         0.3287555385E-02      0.1162427103E-01

    ------------------------------------------------
       NWT REQUIRED            3 OUTER ITERATIONS 
       AND A TOTAL OF          5 INNER ITERATIONS.
    ------------------------------------------------

 NO OUTPUT CONTROL FOR STRESS PERIOD   16   TIME STEP   14
 
 SOLVING FOR HEAD 
                                                   Max.-Head-Change                         Max.-Flux-Residual
  Residual-Control   Outer-Iter.   Inner-Iter.     Column Row Layer    Maximum-Head-Change  Column Row Layer    Maximum-Flux-Residual          L2-NORM 
          0                 1           2             4    7     1       0.8923013508E-02       4    7    1         0.4669204221E+00      0.1652441544E+01
          0                 2           2             4    7     1      -0.8674963114E-03       4    7    1        -0.4666668953E-01      0.1639212090E+00
          0                 3           1             4    7     1       0.5902873135E-04       4    7    1         0.3264195321E-02      0.1135284844E-01

    ------------------------------------------------
       NWT REQUIRED            3 OUTER ITERATIONS 
       AND A TOTAL OF          5 INNER ITERATIONS.
    ------------------------------------------------

 NO OUTPUT CONTROL FOR STRESS PERIOD   16   TIME STEP   15
 
 SOLVING FOR HEAD 
                                                   Max.-Head-Change                         Max.-Flux-Residual
  Residual-Control   Outer-Iter.   Inner-Iter.     Column Row Layer    Maximum-Head-Change  Column Row Layer    Maximum-Flux-Residual          L2-NORM 
          0                 1           2             4    7     1       0.8860529034E-02       4    7    1         0.4636307507E+00      0.1613835899E+01
          0                 2           2             4    7     1      -0.8614215355E-03       4    7    1        -0.4633789895E-01      0.1602297044E+00
          0                 3           1             4    7     1       0.5861537261E-04       4    7    1         0.3241197300E-02      0.1111040215E-01

    ------------------------------------------------
       NWT REQUIRED            3 OUTER ITERATIONS 
       AND A TOTAL OF          5 INNER ITERATIONS.
    ------------------------------------------------

 NO OUTPUT CONTROL FOR STRESS PERIOD   16   TIME STEP   16
 
 SOLVING FOR HEAD 
                                                   Max.-Head-Change                         Max.-Flux-Residual
  Residual-Control   Outer-Iter.   Inner-Iter.     Column Row Layer    Maximum-Head-Change  Column Row Layer    Maximum-Flux-Residual          L2-NORM 
          0                 1           2             4    7     1       0.8798847472E-02       4    7    1         0.4603836404E+00      0.1579300542E+01
          0                 2           2             4    7     1      -0.8554248197E-03       4    7    1        -0.4601336224E-01      0.1569244204E+00
          0                 3           1             4    7     1       0.5820732528E-04       4    7    1         0.3218496837E-02      0.1089266228E-01

    ------------------------------------------------
       NWT REQUIRED            3 OUTER ITERATIONS 
       AND A TOTAL OF          5 INNER ITERATIONS.
    ------------------------------------------------

 NO OUTPUT CONTROL FOR STRESS PERIOD   16   TIME STEP   17
 
 SOLVING FOR HEAD 
                                                   Max.-Head-Change                         Max.-Flux-Residual
  Residual-Control   Outer-Iter.   Inner-Iter.     Column Row Layer    Maximum-Head-Change  Column Row Layer    Maximum-Flux-Residual          L2-NORM 
          0                 1           2             4    7     1       0.8738081259E-02       4    7    1         0.4571855311E+00      0.1548318234E+01
          0                 2           2             4    7     1      -0.8495170953E-03       4    7    1        -0.4569372305E-01      0.1539550227E+00
          0                 3           1             4    7     1       0.5780533336E-04       4    7    1         0.3196138940E-02      0.1069622523E-01

    ------------------------------------------------
       NWT REQUIRED            3 OUTER ITERATIONS 
       AND A TOTAL OF          5 INNER ITERATIONS.
    ------------------------------------------------

 NO OUTPUT CONTROL FOR STRESS PERIOD   16   TIME STEP   18
 
 SOLVING FOR HEAD 
                                                   Max.-Head-Change                         Max.-Flux-Residual
  Residual-Control   Outer-Iter.   Inner-Iter.     Column Row Layer    Maximum-Head-Change  Column Row Layer    Maximum-Flux-Residual          L2-NORM 
          0                 1           2             4    7     1       0.8677928277E-02       4    7    1         0.4540201383E+00      0.1520433756E+01
          0                 2           2             4    7     1      -0.8436689899E-03       4    7    1        -0.4537735378E-01      0.1512782398E+00
          0                 3           1             4    7     1       0.5740739850E-04       4    7    1         0.3174009766E-02      0.1051890352E-01

    ------------------------------------------------
       NWT REQUIRED            3 OUTER ITERATIONS 
       AND A TOTAL OF          5 INNER ITERATIONS.
    ------------------------------------------------

 NO OUTPUT CONTROL FOR STRESS PERIOD   16   TIME STEP   19
 
 SOLVING FOR HEAD 
                                                   Max.-Head-Change                         Max.-Flux-Residual
  Residual-Control   Outer-Iter.   Inner-Iter.     Column Row Layer    Maximum-Head-Change  Column Row Layer    Maximum-Flux-Residual          L2-NORM 
          0                 1           2             4    7     1       0.8618513834E-02       4    7    1         0.4508939117E+00      0.1495239367E+01
          0                 2           2             4    7     1      -0.8378926866E-03       4    7    1        -0.4506489910E-01      0.1488558948E+00
          0                 3           1             4    7     1       0.5701434940E-04       4    7    1         0.3152154408E-02      0.1035849385E-01

    ------------------------------------------------
       NWT REQUIRED            3 OUTER ITERATIONS 
       AND A TOTAL OF          5 INNER ITERATIONS.
    ------------------------------------------------

 NO OUTPUT CONTROL FOR STRESS PERIOD   16   TIME STEP   20
 
 SOLVING FOR HEAD 
                                                   Max.-Head-Change                         Max.-Flux-Residual
  Residual-Control   Outer-Iter.   Inner-Iter.     Column Row Layer    Maximum-Head-Change  Column Row Layer    Maximum-Flux-Residual          L2-NORM 
          0                 1           2             4    7     1       0.8559818399E-02       4    7    1         0.4478059772E+00      0.1472380790E+01
          0                 2           2             4    7     1      -0.8321862862E-03       4    7    1        -0.4475627158E-01      0.1466539201E+00
          0                 3           1             4    7     1       0.5662605684E-04       4    7    1         0.3130566766E-02      0.1021204167E-01

    ------------------------------------------------
       NWT REQUIRED            3 OUTER ITERATIONS 
       AND A TOTAL OF          5 INNER ITERATIONS.
    ------------------------------------------------

 NO OUTPUT CONTROL FOR STRESS PERIOD   16   TIME STEP   21
 
 SOLVING FOR HEAD 
                                                   Max.-Head-Change                         Max.-Flux-Residual
  Residual-Control   Outer-Iter.   Inner-Iter.     Column Row Layer    Maximum-Head-Change  Column Row Layer    Maximum-Flux-Residual          L2-NORM 
          0                 1           2             4    7     1       0.8501957173E-02       4    7    1         0.4447626939E+00      0.1451576271E+01
          0                 2           2             4    7     1      -0.8265609890E-03       4    7    1        -0.4445210688E-01      0.1446467803E+00
          0                 3           1             4    7     1       0.5624328303E-04       4    7    1         0.3109291268E-02      0.1007826413E-01

    ------------------------------------------------
       NWT REQUIRED            3 OUTER ITERATIONS 
       AND A TOTAL OF          5 INNER ITERATIONS.
    ------------------------------------------------

 NO OUTPUT CONTROL FOR STRESS PERIOD   16   TIME STEP   22
 
 SOLVING FOR HEAD 
                                                   Max.-Head-Change                         Max.-Flux-Residual
  Residual-Control   Outer-Iter.   Inner-Iter.     Column Row Layer    Maximum-Head-Change  Column Row Layer    Maximum-Flux-Residual          L2-NORM 
          0                 1           2             4    7     1       0.8444769495E-02       4    7    1         0.4417552910E+00      0.1432548906E+01
          0                 2           2             4    7     1      -0.8210011753E-03       4    7    1        -0.4415152832E-01      0.1428063726E+00
          0                 3           1             4    7     1       0.5586496506E-04       4    7    1         0.3088266636E-02      0.9954935694E-02

    ------------------------------------------------
       NWT REQUIRED            3 OUTER ITERATIONS 
       AND A TOTAL OF          5 INNER ITERATIONS.
    ------------------------------------------------

 NO OUTPUT CONTROL FOR STRESS PERIOD   16   TIME STEP   23
 
 SOLVING FOR HEAD 
                                                   Max.-Head-Change                         Max.-Flux-Residual
  Residual-Control   Outer-Iter.   Inner-Iter.     Column Row Layer    Maximum-Head-Change  Column Row Layer    Maximum-Flux-Residual          L2-NORM 
          0                 1           2             4    7     1       0.8388109666E-02       4    7    1         0.4387754382E+00      0.1415087309E+01
          0                 2           2             4    7     1      -0.8154926789E-03       4    7    1        -0.4385370328E-01      0.1411150806E+00
          0                 3           1             4    7     1       0.5549013874E-04       4    7    1         0.3067434586E-02      0.9841520382E-02

    ------------------------------------------------
       NWT REQUIRED            3 OUTER ITERATIONS 
       AND A TOTAL OF          5 INNER ITERATIONS.
    ------------------------------------------------

 NO OUTPUT CONTROL FOR STRESS PERIOD   16   TIME STEP   24
 
 SOLVING FOR HEAD 
                                                   Max.-Head-Change                         Max.-Flux-Residual
  Residual-Control   Outer-Iter.   Inner-Iter.     Column Row Layer    Maximum-Head-Change  Column Row Layer    Maximum-Flux-Residual          L2-NORM 
          0                 1           2             4    7     1       0.8332233256E-02       4    7    1         0.4358376979E+00      0.1398977652E+01
          0                 2           2             4    7     1      -0.8100603483E-03       4    7    1        -0.4356008730E-01      0.1395729592E+00
          0                 3           1             4    7     1       0.5512049556E-04       4    7    1         0.3046896969E-02      0.9737804230E-02

    ------------------------------------------------
       NWT REQUIRED            3 OUTER ITERATIONS 
       AND A TOTAL OF          5 INNER ITERATIONS.
    ------------------------------------------------

 NO OUTPUT CONTROL FOR STRESS PERIOD   16   TIME STEP   25
 
 SOLVING FOR HEAD 
                                                   Max.-Head-Change                         Max.-Flux-Residual
  Residual-Control   Outer-Iter.   Inner-Iter.     Column Row Layer    Maximum-Head-Change  Column Row Layer    Maximum-Flux-Residual          L2-NORM 
          0                 1           2             4    7     1       0.8277117913E-02       4    7    1         0.4329405768E+00      0.1384050677E+01
          0                 2           2             4    7     1      -0.8047020094E-03       4    7    1        -0.4327053110E-01      0.1381000237E+00
          0                 3           1             4    7     1       0.5475588725E-04       4    7    1         0.3026643309E-02      0.9638647346E-02

    ------------------------------------------------
       NWT REQUIRED            3 OUTER ITERATIONS 
       AND A TOTAL OF          5 INNER ITERATIONS.
    ------------------------------------------------

 NO OUTPUT CONTROL FOR STRESS PERIOD   16   TIME STEP   26
 
 SOLVING FOR HEAD 
                                                   Max.-Head-Change                         Max.-Flux-Residual
  Residual-Control   Outer-Iter.   Inner-Iter.     Column Row Layer    Maximum-Head-Change  Column Row Layer    Maximum-Flux-Residual          L2-NORM 
          0                 1           2             4    7     1       0.8222475170E-02       4    7    1         0.4300681706E+00      0.1370136205E+01
          0                 2           2             4    7     1      -0.7993896169E-03       4    7    1        -0.4298344506E-01      0.1367438473E+00
          0                 3           1             4    7     1       0.5439440492E-04       4    7    1         0.3006562430E-02      0.9547382632E-02

    ------------------------------------------------
       NWT REQUIRED            3 OUTER ITERATIONS 
       AND A TOTAL OF          5 INNER ITERATIONS.
    ------------------------------------------------

 NO OUTPUT CONTROL FOR STRESS PERIOD   16   TIME STEP   27
 
 SOLVING FOR HEAD 
                                                   Max.-Head-Change                         Max.-Flux-Residual
  Residual-Control   Outer-Iter.   Inner-Iter.     Column Row Layer    Maximum-Head-Change  Column Row Layer    Maximum-Flux-Residual          L2-NORM 
          0                 1           2             4    7     1       0.8168436020E-02       4    7    1         0.4272276406E+00      0.1357137398E+01
          0                 2           2             4    7     1      -0.7941359066E-03       4    7    1        -0.4269954494E-01      0.1354749106E+00
          0                 3           1             4    7     1       0.5403691598E-04       4    7    1         0.2986704417E-02      0.9461416518E-02

    ------------------------------------------------
       NWT REQUIRED            3 OUTER ITERATIONS 
       AND A TOTAL OF          5 INNER ITERATIONS.
    ------------------------------------------------

 NO OUTPUT CONTROL FOR STRESS PERIOD   16   TIME STEP   28
 
 SOLVING FOR HEAD 
                                                   Max.-Head-Change                         Max.-Flux-Residual
  Residual-Control   Outer-Iter.   Inner-Iter.     Column Row Layer    Maximum-Head-Change  Column Row Layer    Maximum-Flux-Residual          L2-NORM 
          0                 1           2             4    7     1       0.8115115846E-02       4    7    1         0.4244257786E+00      0.1344964518E+01
          0                 2           2             4    7     1      -0.7889520963E-03       4    7    1        -0.4241950963E-01      0.1342842652E+00
          0                 3           1             4    7     1       0.5368418334E-04       4    7    1         0.2967116722E-02      0.9380406658E-02

    ------------------------------------------------
       NWT REQUIRED            3 OUTER ITERATIONS 
       AND A TOTAL OF          5 INNER ITERATIONS.
    ------------------------------------------------

 NO OUTPUT CONTROL FOR STRESS PERIOD   16   TIME STEP   29
 
 SOLVING FOR HEAD 
                                                   Max.-Head-Change                         Max.-Flux-Residual
  Residual-Control   Outer-Iter.   Inner-Iter.     Column Row Layer    Maximum-Head-Change  Column Row Layer    Maximum-Flux-Residual          L2-NORM 
          0                 1           2             4    7     1       0.8062317948E-02       4    7    1         0.4216538215E+00      0.1289556180E+01
          0                 2           2             4    7     1      -0.7838190650E-03       4    7    1        -0.4214246335E-01      0.1288986828E+00
          0                 3           1             4    7     1       0.5333490637E-04       4    7    1         0.2947738111E-02      0.9017547048E-02

    ------------------------------------------------
       NWT REQUIRED            3 OUTER ITERATIONS 
       AND A TOTAL OF          5 INNER ITERATIONS.
    ------------------------------------------------

 NO OUTPUT CONTROL FOR STRESS PERIOD   16   TIME STEP   30



 STREAM LISTING     PERIOD     16   STEP       30

 LAYER ROW COL. STREAM  RCH.  FLOW INTO     FLOW TO   FLOW OUT OF   OVRLND.     DIRECT     STREAM       STREAM     STREAM     STREAM   STREAMBED  STREAMBED
                SEG.NO.  NO.  STRM. RCH.    AQUIFER    STRM. RCH.    RUNOFF     PRECIP       ET          HEAD       DEPTH      WIDTH   CONDCTNC.   GRADIENT

   1    1    1     1     1    8.8455E+01  4.5169E-01   8.8003E+01  0.000E+00  0.000E+00  0.000E+00  1.09480E+03  1.756E+00  2.111E+01  9.498E-02  1.585E+00
   1    2    2     1     2    8.8003E+01  7.0076E-01   8.7302E+01  0.000E+00  0.000E+00  0.000E+00  1.08981E+03  1.753E+00  2.106E+01  1.474E-01  1.584E+00
   1    3    3     1     3    8.7302E+01  5.9885E-01   8.6704E+01  0.000E+00  0.000E+00  0.000E+00  1.08417E+03  1.751E+00  2.101E+01  1.260E-01  1.584E+00
   1    3    4     1     4    8.6704E+01  5.5245E-01   8.6151E+01  0.000E+00  0.000E+00  0.000E+00  1.07916E+03  1.749E+00  2.096E+01  1.163E-01  1.583E+00
   1    4    5     2     1    8.4151E+01  4.2881E-01   8.3722E+01  0.000E+00  0.000E+00  0.000E+00  1.07443E+03  2.498E+00  1.200E+01  7.800E-02  1.833E+00
   1    5    6     2     2    8.3722E+01  3.2945E-01   8.3393E+01  0.000E+00  0.000E+00  0.000E+00  1.06900E+03  2.491E+00  1.200E+01  6.000E-02  1.830E+00
   1    6    6     2     3    8.3393E+01  3.2909E-01   8.3064E+01  0.000E+00  0.000E+00  0.000E+00  1.06428E+03  2.485E+00  1.200E+01  6.000E-02  1.828E+00
   1    7    6     2     4    8.3064E+01  3.2874E-01   8.2735E+01  0.000E+00  0.000E+00  0.000E+00  1.05955E+03  2.479E+00  1.200E+01  6.000E-02  1.826E+00
   1    8    6     2     5    8.2735E+01  3.2839E-01   8.2407E+01  0.000E+00  0.000E+00  0.000E+00  1.05483E+03  2.473E+00  1.200E+01  6.000E-02  1.824E+00
   1    3    5     3     1    2.0000E+00  2.8252E-01   1.7175E+00  0.000E+00  0.000E+00  0.000E+00  1.07555E+03  1.909E+00  9.636E+00  7.227E-02  1.955E+00
   1    3    6     3     2    1.7175E+00  2.4905E-01   1.4684E+00  0.000E+00  0.000E+00  0.000E+00  1.07264E+03  1.727E+00  8.909E+00  6.682E-02  1.864E+00
   1    3    7     3     3    1.4684E+00  1.9718E-01   1.2712E+00  0.000E+00  0.000E+00  0.000E+00  1.06987E+03  1.555E+00  8.218E+00  5.547E-02  1.777E+00
   1    4    8     3     4    1.2712E+00  2.2567E-01   1.0456E+00  0.000E+00  0.000E+00  0.000E+00  1.06682E+03  1.364E+00  7.455E+00  6.709E-02  1.682E+00
   1    5    8     3     5    1.0456E+00  1.5790E-01   8.8768E-01  0.000E+00  0.000E+00  0.000E+00  1.06362E+03  1.164E+00  6.655E+00  4.991E-02  1.582E+00
   1    6    8     3     6    8.8768E-01  5.5980E-02   8.3170E-01  0.000E+00  0.000E+00  0.000E+00  1.06158E+03  1.036E+00  6.145E+00  1.844E-02  1.518E+00
   1    5   10     4     1    1.0000E+01  9.0919E-02   9.9091E+00  0.000E+00  0.000E+00  0.000E+00  1.07836E+03  6.368E-01  1.000E+01  2.500E-02  1.212E+00
   1    5    9     4     2    9.9091E+00  1.8158E-01   9.7275E+00  0.000E+00  0.000E+00  0.000E+00  1.07154E+03  6.315E-01  1.000E+01  5.000E-02  1.211E+00
   1    6    8     4     3    9.7275E+00  1.2689E-01   9.6006E+00  0.000E+00  0.000E+00  0.000E+00  1.06381E+03  6.256E-01  1.000E+01  3.500E-02  1.209E+00
   1    6    8     5     1    1.0432E+01  2.2686E-01   1.0205E+01  0.000E+00  0.000E+00  0.000E+00  1.05868E+03  6.790E-01  1.542E+01  6.166E-02  1.226E+00
   1    7    7     5     2    1.0205E+01  2.7894E-01   9.9265E+00  0.000E+00  0.000E+00  0.000E+00  1.05417E+03  6.732E-01  1.519E+01  7.594E-02  1.224E+00
   1    8    7     5     3    9.9265E+00  1.9221E-01   9.7343E+00  0.000E+00  0.000E+00  0.000E+00  1.04992E+03  6.676E-01  1.497E+01  5.241E-02  1.223E+00
   1    8    6     5     4    9.7343E+00  1.3577E-01   9.5985E+00  0.000E+00  0.000E+00  0.000E+00  1.04691E+03  6.637E-01  1.482E+01  3.706E-02  1.221E+00
   1    9    6     6     1    9.2005E+01  3.3993E-01   9.1665E+01  0.000E+00  0.000E+00  0.000E+00  1.04539E+03  2.665E+00  1.200E+01  6.000E-02  1.888E+00
   1   10    7     6     2    9.1665E+01  3.3957E-01   9.1326E+01  0.000E+00  0.000E+00  0.000E+00  1.04084E+03  2.660E+00  1.200E+01  6.000E-02  1.887E+00
   1   11    7     6     3    9.1326E+01  3.3922E-01   9.0986E+01  0.000E+00  0.000E+00  0.000E+00  1.03629E+03  2.654E+00  1.200E+01  6.000E-02  1.885E+00
   1   12    7     6     4    9.0986E+01  3.3886E-01   9.0648E+01  0.000E+00  0.000E+00  0.000E+00  1.03174E+03  2.648E+00  1.200E+01  6.000E-02  1.883E+00
   1   13    7     6     5    9.0648E+01  3.4640E-02   9.0613E+01  0.000E+00  0.000E+00  0.000E+00  1.02855E+03  2.644E+00  1.200E+01  2.400E-02  4.811E-01
   1   14    9     7     1    1.5000E+02  1.3300E+00   1.4867E+02  0.000E+00  0.000E+00  0.000E+00  1.03987E+03  2.288E+00  5.529E+01  5.593E-01  7.927E-01
   1   13    8     7     2    1.4867E+02  1.8192E+00   1.4685E+02  0.000E+00  0.000E+00  0.000E+00  1.03478E+03  2.279E+00  5.526E+01  6.148E-01  9.863E-01
   1   13    7     7     3    1.4685E+02  1.4407E+00   1.4541E+02  0.000E+00  0.000E+00  0.000E+00  1.02969E+03  2.271E+00  5.522E+01  5.585E-01  8.599E-01
   1   13    6     8     1    2.3602E+02  1.1662E+00   2.3486E+02  0.000E+00  0.000E+00  0.000E+00  1.02521E+03  3.336E+00  4.837E+01  4.929E-01  7.887E-01
   1   13    5     8     2    2.3486E+02  3.2589E-01   2.3453E+02  0.000E+00  0.000E+00  0.000E+00  1.01896E+03  3.332E+00  4.831E+01  4.923E-01  2.207E-01
   1   13    4     8     3    2.3453E+02 -2.2013E+00   2.3673E+02  0.000E+00  0.000E+00  0.000E+00  1.01271E+03  3.337E+00  4.838E+01  4.930E+00 -1.488E-01
   1   13    3     8     4    2.3673E+02 -3.5753E+00   2.4031E+02  0.000E+00  0.000E+00  0.000E+00  1.00648E+03  3.352E+00  4.860E+01  4.953E+00 -2.406E-01
   1   13    2     8     5    2.4031E+02 -2.5564E+00   2.4286E+02  0.000E+00  0.000E+00  0.000E+00  1.00024E+03  3.368E+00  4.884E+01  4.977E+00 -1.712E-01
   1   13    1     8     6    2.4286E+02 -1.8856E+00   2.4475E+02  0.000E+00  0.000E+00  0.000E+00  9.95255E+02  3.380E+00  4.900E+01  2.996E+00 -2.098E-01





UNSATURATED ZONE PACKAGE VOLUMETRIC BUDGET FOR  TIME STEP    30 STRESS PERIOD   16
  ------------------------------------------------------------------------------



     CUMULATIVE VOLUMES      L**3       RATES FOR THIS TIME STEP      L**3/T
     ------------------                 ------------------------

           IN:                                      IN:
           ---                                      ---
        INFILTRATION =   509351969.9178          INFILTRATION =           0.8475

          OUT:                                     OUT:
          ----                                     ----
              UZF ET =   435973589.1313                UZF ET =           0.7500
        UZF RECHARGE =    72024631.8946          UZF RECHARGE =           0.0001

            IN - OUT =     1353748.8918              IN - OUT =       9.7392E-02

          STORAGE:                                 STORAGE:
          --------                                 --------
      STORAGE CHANGE =     1353742.8977        STORAGE CHANGE =       9.7392E-02

 PERCENT DISCREPANCY IS DIFFERENCE BETWEEN IN-OUT MINUS CHANGE IN STORAGE
 DIVIDED BY THE AVERAGE OF IN AND OUT TIMES 100

 PERCENT DISCREPANCY =           0.00     PERCENT DISCREPANCY =           0.00






1
  VOLUMETRIC BUDGET FOR AGRICULTURAL FIELDS AT  END OF TIME STEP   30, STRESS PERIOD  16
  ------------------------------------------------------------------------------

     CUMULATIVE VOLUMES      L**3       RATES FOR THIS TIME STEP      L**3/T
     ------------------                 ------------------------

           IN:                                      IN:
           ---                                      ---
           AG WELLS      =   475844416.0000             AG WELLS      =           0.0000
      DIVERSION SEGMENTS =           0.0000        DIVERSION SEGMENTS =           0.0000
           GW IRRIGATION =           0.0000             GW IRRIGATION =           0.0000
           SW IRRIGATION =           0.0000             SW IRRIGATION =           0.0000
        SYSTEM LOSSES GW =           0.0000          SYSTEM LOSSES GW =           0.0000
        SYSTEM LOSSES SW =           0.0000          SYSTEM LOSSES SW =           0.0000

                TOTAL IN =   475844416.0000                  TOTAL IN =           0.0000

          OUT:                                     OUT:
          ----                                     ----
           AG WELLS      =           0.0000             AG WELLS      =           0.0000
      DIVERSION SEGMENTS =           0.0000        DIVERSION SEGMENTS =           0.0000
           GW IRRIGATION =   475844416.0000             GW IRRIGATION =           0.0000
           SW IRRIGATION =           0.0000             SW IRRIGATION =           0.0000
        SYSTEM LOSSES GW =           0.0000          SYSTEM LOSSES GW =           0.0000
        SYSTEM LOSSES SW =           0.0000          SYSTEM LOSSES SW =           0.0000

               TOTAL OUT =   475844416.0000                 TOTAL OUT =           0.0000

                IN - OUT =           0.0000                  IN - OUT =           0.0000

     PERCENT DISCREPANCY =           0.00         PERCENT DISCREPANCY =           0.00



1
  VOLUMETRIC BUDGET FOR ENTIRE MODEL AT END OF TIME STEP   30, STRESS PERIOD  16
  ------------------------------------------------------------------------------

     CUMULATIVE VOLUMES      L**3       RATES FOR THIS TIME STEP      L**3/T
     ------------------                 ------------------------

           IN:                                      IN:
           ---                                      ---
             STORAGE     =   632980032.0000               STORAGE     =           2.7179
       CONSTANT HEAD     =           0.0000         CONSTANT HEAD     =           0.0000
     HEAD DEP BOUNDS     =    11284224.0000       HEAD DEP BOUNDS     =           0.2854
      STREAM LEAKAGE     =   492072672.0000        STREAM LEAKAGE     =          13.9239
        UZF RECHARGE     =    72024584.0000          UZF RECHARGE     =       1.0763E-04
               GW ET     =           0.0000                 GW ET     =           0.0000
     SURFACE LEAKAGE     =           0.0000       SURFACE LEAKAGE     =           0.0000
           AG WELLS      =           0.0000             AG WELLS      =           0.0000

                TOTAL IN =  1208361472.0000                  TOTAL IN =          16.9272

          OUT:                                     OUT:
          ----                                     ----
             STORAGE     =   300427616.0000               STORAGE     =           6.4048
       CONSTANT HEAD     =           0.0000         CONSTANT HEAD     =           0.0000
     HEAD DEP BOUNDS     =    11629875.0000       HEAD DEP BOUNDS     =           0.2996
      STREAM LEAKAGE     =   406701728.0000        STREAM LEAKAGE     =          10.2185
        UZF RECHARGE     =           0.0000          UZF RECHARGE     =           0.0000
               GW ET     =    13760035.0000                 GW ET     =       5.3549E-03
     SURFACE LEAKAGE     =           0.0000       SURFACE LEAKAGE     =           0.0000
           AG WELLS      =   475844416.0000             AG WELLS      =           0.0000

               TOTAL OUT =  1208363776.0000                 TOTAL OUT =          16.9283

                IN - OUT =       -2304.0000                  IN - OUT =      -1.0548E-03

     PERCENT DISCREPANCY =          -0.00         PERCENT DISCREPANCY =          -0.01






         TIME SUMMARY AT END OF TIME STEP   30 IN STRESS PERIOD   16
                    SECONDS     MINUTES      HOURS       DAYS        YEARS
                    -----------------------------------------------------------
   TIME STEP LENGTH  87667.      1461.1      24.352      1.0147     2.77799E-03
 STRESS PERIOD TIME 2.63000E+06  43833.      730.56      30.440     8.33397E-02
         TOTAL TIME 3.95364E+07 6.58940E+05  10982.      457.60      1.2528    
1
1
                            STRESS PERIOD NO.   17, LENGTH =   2630000.    
                            -----------------------------------------------

                              NUMBER OF TIME STEPS =    30

                               MULTIPLIER FOR DELT =     1.000

                            INITIAL TIME STEP SIZE =   87666.66    

 REUSING NON-PARAMETER GHB CELLS FROM LAST STRESS PERIOD

      2 GHB CELLS

 REUSING STREAM SEGMENT DATA FROM LAST STRESS PERIOD



            AREAL INFILTRATION RATE
 READING ON UNIT   19 WITH FORMAT: (FREE)              

            1           2           3           4           5           6           7           8           9          10
 ........................................................................................................................
   1   1.0000E-10  2.0000E-10   0.000       0.000       0.000       0.000       0.000       0.000       0.000       0.000    
   2   2.0000E-10  1.0000E-10  2.0000E-10   0.000       0.000      8.0000E-10  8.0000E-10  5.0000E-10   0.000       0.000    
   3    0.000      5.0000E-10  1.0000E-10  1.0000E-10  8.0000E-10  8.0000E-10  5.0000E-10  5.0000E-10   0.000       0.000    
   4   8.0000E-10  5.0000E-10  1.0000E-10  1.0000E-10  1.0000E-10  1.0000E-10  1.0000E-10  1.0000E-10  2.0000E-10   0.000    
   5   8.0000E-10  5.0000E-10  1.0000E-10  1.0000E-10  1.0000E-10  1.0000E-10  1.0000E-10  1.0000E-10  1.0000E-10  1.0000E-10
   6   8.0000E-10  5.0000E-10  5.0000E-10  2.0000E-10  2.0000E-10  1.0000E-10  1.0000E-10  1.0000E-10  1.0000E-10  5.0000E-10
   7   8.0000E-10  5.0000E-10  5.0000E-10  2.0000E-10  2.0000E-10  1.0000E-10  1.0000E-10  2.0000E-10  2.0000E-10   0.000    
   8    0.000      5.0000E-10  5.0000E-10  2.0000E-10  2.0000E-10  1.0000E-10  1.0000E-10  2.0000E-10  5.0000E-10   0.000    
   9    0.000      5.0000E-10  5.0000E-10  2.0000E-10  2.0000E-10  1.0000E-10  1.0000E-10  2.0000E-10  5.0000E-10   0.000    
  10    0.000      5.0000E-10  5.0000E-10  2.0000E-10  2.0000E-10  1.0000E-10  1.0000E-10  2.0000E-10  5.0000E-10  8.0000E-10
  11    0.000      1.0000E-10  1.0000E-10  1.0000E-10  1.0000E-10  1.0000E-10  1.0000E-10  2.0000E-10  5.0000E-10   0.000    
  12   1.0000E-10  1.0000E-10  1.0000E-10  1.0000E-10  1.0000E-10  1.0000E-10  1.0000E-10  1.0000E-10  2.0000E-10   0.000    
  13   1.0000E-10  1.0000E-10  2.0000E-10  2.0000E-10  2.0000E-10  2.0000E-10  2.0000E-10  1.0000E-10  1.0000E-10   0.000    
  14    0.000      2.0000E-10  5.0000E-10  5.0000E-10  5.0000E-10  5.0000E-10  5.0000E-10  2.0000E-10  1.0000E-10   0.000    
  15    0.000       0.000      8.0000E-10  8.0000E-10  8.0000E-10  8.0000E-10   0.000       0.000       0.000       0.000    

                  ET RATE =  2.500000E-08

 USING ET EXTINCTION DEPTH FROM PREVIOUS STRESS PERIOD. CURRENT PERIOD IS:      17

 USING EXTINCTION WATER CONTENT FROM PREVIOUS STRESS PERIOD. CURRENT PERIOD IS:      17

 USING AIR ENTRY PRESSURE FROM PREVIOUS STRESS PERIOD. CURRENT PERIOD IS:      17

 USING ROOT PRESSURE HEAD FROM PREVIOUS STRESS PERIOD. CURRENT PERIOD IS:      17

 USING ROOT ACTIVITY FROM PREVIOUS STRESS PERIOD. CURRENT PERIOD IS:      17

 PROCESSING AG STRESS PERIOD DATA

 READING AG STRESS PERIOD DATA

 READING IRRIGATION WELL

 END PROCESSING AG STRESS PERIOD DATA OPTIONS
 
 SOLVING FOR HEAD 
                                                   Max.-Head-Change                         Max.-Flux-Residual
  Residual-Control   Outer-Iter.   Inner-Iter.     Column Row Layer    Maximum-Head-Change  Column Row Layer    Maximum-Flux-Residual          L2-NORM 
          0                 1           2             4   13     1      -0.9932927088E-02       4   13    1        -0.5865562896E+00      0.1401008010E+01
          0                 2           2             4   13     1       0.9574247752E-03       4   13    1         0.5813272997E-01      0.1387186850E+00
          0                 3           1             4   13     1      -0.6437283524E-04       4   13    1        -0.4018837004E-02      0.9584681547E-02

    ------------------------------------------------
       NWT REQUIRED            3 OUTER ITERATIONS 
       AND A TOTAL OF          5 INNER ITERATIONS.
    ------------------------------------------------

 NO OUTPUT CONTROL FOR STRESS PERIOD   17   TIME STEP    1
 
 SOLVING FOR HEAD 
                                                   Max.-Head-Change                         Max.-Flux-Residual
  Residual-Control   Outer-Iter.   Inner-Iter.     Column Row Layer    Maximum-Head-Change  Column Row Layer    Maximum-Flux-Residual          L2-NORM 
          0                 1           2             3   13     1      -0.8782112321E-02       4   13    1        -0.5162279070E+00      0.1468713421E+01
          0                 2           2             4    7     1      -0.1223190095E-01       4    7    1        -0.6569277379E+00      0.1600848278E+01
          0                 3           2             4    7     1       0.8320545483E-03       4    7    1         0.4593545569E-01      0.1119426965E+00
          0                 4           1             4    7     1      -0.3310824035E-04       4    7    1        -0.1878763449E-02      0.4577928620E-02

    ------------------------------------------------
       NWT REQUIRED            4 OUTER ITERATIONS 
       AND A TOTAL OF          7 INNER ITERATIONS.
    ------------------------------------------------

 NO OUTPUT CONTROL FOR STRESS PERIOD   17   TIME STEP    2
 
 SOLVING FOR HEAD 
                                                   Max.-Head-Change                         Max.-Flux-Residual
  Residual-Control   Outer-Iter.   Inner-Iter.     Column Row Layer    Maximum-Head-Change  Column Row Layer    Maximum-Flux-Residual          L2-NORM 
          0                 1           2             4    7     1       0.8049354587E-02       3   13    1        -0.4569580271E+00      0.1426679007E+01
          0                 2           2             4    7     1      -0.1232687624E-01       4    7    1        -0.6620023149E+00      0.1614716006E+01
          0                 3           2             4    7     1       0.8386963276E-03       4    7    1         0.4630038201E-01      0.1129318932E+00
          0                 4           1             4    7     1      -0.3337252336E-04       4    7    1        -0.1893688972E-02      0.4618488465E-02

    ------------------------------------------------
       NWT REQUIRED            4 OUTER ITERATIONS 
       AND A TOTAL OF          7 INNER ITERATIONS.
    ------------------------------------------------

 NO OUTPUT CONTROL FOR STRESS PERIOD   17   TIME STEP    3
 
 SOLVING FOR HEAD 
                                                   Max.-Head-Change                         Max.-Flux-Residual
  Residual-Control   Outer-Iter.   Inner-Iter.     Column Row Layer    Maximum-Head-Change  Column Row Layer    Maximum-Flux-Residual          L2-NORM 
          0                 1           2             4    7     1       0.8076157907E-02       4    7    1         0.4215769863E+00      0.1393862183E+01
          0                 2           2             4    7     1      -0.1232953807E-01       4    7    1        -0.6621210959E+00      0.1616428701E+01
          0                 3           2             4    7     1       0.8389294276E-03       4    7    1         0.4631168698E-01      0.1130543390E+00
          0                 4           1             4    7     1      -0.3338179838E-04       4    7    1        -0.1894151347E-02      0.4626983462E-02

    ------------------------------------------------
       NWT REQUIRED            4 OUTER ITERATIONS 
       AND A TOTAL OF          7 INNER ITERATIONS.
    ------------------------------------------------

 NO OUTPUT CONTROL FOR STRESS PERIOD   17   TIME STEP    4
 
 SOLVING FOR HEAD 
                                                   Max.-Head-Change                         Max.-Flux-Residual
  Residual-Control   Outer-Iter.   Inner-Iter.     Column Row Layer    Maximum-Head-Change  Column Row Layer    Maximum-Flux-Residual          L2-NORM 
          0                 1           2             4    7     1       0.8106889086E-02       4    7    1         0.4229592790E+00      0.1368640842E+01
          0                 2           2             4    7     1      -0.1233252879E-01       4    7    1        -0.6622593217E+00      0.1618124055E+01
          0                 3           2             4    7     1       0.8391330924E-03       4    7    1         0.4632136337E-01      0.1131740830E+00
          0                 4           1             4    7     1      -0.3338990244E-04       4    7    1        -0.1894547100E-02      0.4628537375E-02

    ------------------------------------------------
       NWT REQUIRED            4 OUTER ITERATIONS 
       AND A TOTAL OF          7 INNER ITERATIONS.
    ------------------------------------------------

 NO OUTPUT CONTROL FOR STRESS PERIOD   17   TIME STEP    5
 
 SOLVING FOR HEAD 
                                                   Max.-Head-Change                         Max.-Flux-Residual
  Residual-Control   Outer-Iter.   Inner-Iter.     Column Row Layer    Maximum-Head-Change  Column Row Layer    Maximum-Flux-Residual          L2-NORM 
          0                 1           2             4    7     1       0.8141447578E-02       4    7    1         0.4245599698E+00      0.1349698020E+01
          0                 2           2             4    7     1      -0.1233589188E-01       4    7    1        -0.6624193876E+00      0.1619795530E+01
          0                 3           2             4    7     1       0.8393621141E-03       4    7    1         0.4633256849E-01      0.1132919219E+00
          0                 4           1             4    7     1      -0.3339901525E-04       4    7    1        -0.1895005400E-02      0.4633426900E-02

    ------------------------------------------------
       NWT REQUIRED            4 OUTER ITERATIONS 
       AND A TOTAL OF          7 INNER ITERATIONS.
    ------------------------------------------------

 NO OUTPUT CONTROL FOR STRESS PERIOD   17   TIME STEP    6
 
 SOLVING FOR HEAD 
                                                   Max.-Head-Change                         Max.-Flux-Residual
  Residual-Control   Outer-Iter.   Inner-Iter.     Column Row Layer    Maximum-Head-Change  Column Row Layer    Maximum-Flux-Residual          L2-NORM 
          0                 1           2             4    7     1       0.8179470178E-02       4    7    1         0.4263590997E+00      0.1335886835E+01
          0                 2           2             4    7     1      -0.1233959201E-01       4    7    1        -0.6625992977E+00      0.1621435695E+01
          0                 3           2             4    7     1       0.8396140859E-03       4    7    1         0.4634516267E-01      0.1134074314E+00
          0                 4           1             4    7     1      -0.3340904160E-04       4    7    1        -0.1895520502E-02      0.4638210363E-02

    ------------------------------------------------
       NWT REQUIRED            4 OUTER ITERATIONS 
       AND A TOTAL OF          7 INNER ITERATIONS.
    ------------------------------------------------

 NO OUTPUT CONTROL FOR STRESS PERIOD   17   TIME STEP    7
 
 SOLVING FOR HEAD 
                                                   Max.-Head-Change                         Max.-Flux-Residual
  Residual-Control   Outer-Iter.   Inner-Iter.     Column Row Layer    Maximum-Head-Change  Column Row Layer    Maximum-Flux-Residual          L2-NORM 
          0                 1           2             4    7     1       0.8220480819E-02       4    7    1         0.4283304644E+00      0.1326229378E+01
          0                 2           2             4    7     1      -0.1234358285E-01       4    7    1        -0.6627964315E+00      0.1623037914E+01
          0                 3           2             4    7     1       0.8398858530E-03       4    7    1         0.4635896244E-01      0.1135201793E+00
          0                 4           1             4    7     1      -0.3341985531E-04       4    7    1        -0.1896084905E-02      0.4642835961E-02

    ------------------------------------------------
       NWT REQUIRED            4 OUTER ITERATIONS 
       AND A TOTAL OF          7 INNER ITERATIONS.
    ------------------------------------------------

 NO OUTPUT CONTROL FOR STRESS PERIOD   17   TIME STEP    8
 
 SOLVING FOR HEAD 
                                                   Max.-Head-Change                         Max.-Flux-Residual
  Residual-Control   Outer-Iter.   Inner-Iter.     Column Row Layer    Maximum-Head-Change  Column Row Layer    Maximum-Flux-Residual          L2-NORM 
          0                 1           2             4    7     1       0.8264163347E-02       4    8    1         0.4328645724E+00      0.1319932161E+01
          0                 2           2             4    7     1      -0.1234783364E-01       4    8    1        -0.6632499214E+00      0.1624599470E+01
          0                 3           2             4    7     1       0.8401753211E-03       4    8    1         0.4639043247E-01      0.1136299221E+00
          0                 4           1             4    7     1      -0.3343137371E-04       4    8    1        -0.1897373286E-02      0.4647349546E-02

    ------------------------------------------------
       NWT REQUIRED            4 OUTER ITERATIONS 
       AND A TOTAL OF          7 INNER ITERATIONS.
    ------------------------------------------------

 NO OUTPUT CONTROL FOR STRESS PERIOD   17   TIME STEP    9
 
 SOLVING FOR HEAD 
                                                   Max.-Head-Change                         Max.-Flux-Residual
  Residual-Control   Outer-Iter.   Inner-Iter.     Column Row Layer    Maximum-Head-Change  Column Row Layer    Maximum-Flux-Residual          L2-NORM 
          0                 1           2             4    8     1       0.8366729104E-02       5    8    1         0.4392765447E+00      0.1316332233E+01
          0                 2           2             4    7     1      -0.1235234282E-01       5    8    1        -0.6638911429E+00      0.1626118998E+01
          0                 3           2             4    7     1       0.8404823841E-03       5    8    1         0.4643541700E-01      0.1137366352E+00
          0                 4           1             4    7     1      -0.3344359197E-04       5    8    1        -0.1899212718E-02      0.4651717718E-02

    ------------------------------------------------
       NWT REQUIRED            4 OUTER ITERATIONS 
       AND A TOTAL OF          7 INNER ITERATIONS.
    ------------------------------------------------

 NO OUTPUT CONTROL FOR STRESS PERIOD   17   TIME STEP   10
 
 SOLVING FOR HEAD 
                                                   Max.-Head-Change                         Max.-Flux-Residual
  Residual-Control   Outer-Iter.   Inner-Iter.     Column Row Layer    Maximum-Head-Change  Column Row Layer    Maximum-Flux-Residual          L2-NORM 
          0                 1           2             4    8     1       0.8478456324E-02       5    8    1         0.4482853930E+00      0.1314878961E+01
          0                 2           2             4    7     1      -0.1235705532E-01       5    8    1        -0.6647920370E+00      0.1627593520E+01
          0                 3           2             4    7     1       0.8408032913E-03       5    8    1         0.4649847848E-01      0.1138401629E+00
          0                 4           1             4    7     1      -0.3345636112E-04       5    8    1        -0.1901791939E-02      0.4655991137E-02

    ------------------------------------------------
       NWT REQUIRED            4 OUTER ITERATIONS 
       AND A TOTAL OF          7 INNER ITERATIONS.
    ------------------------------------------------

 NO OUTPUT CONTROL FOR STRESS PERIOD   17   TIME STEP   11
 
 SOLVING FOR HEAD 
                                                   Max.-Head-Change                         Max.-Flux-Residual
  Residual-Control   Outer-Iter.   Inner-Iter.     Column Row Layer    Maximum-Head-Change  Column Row Layer    Maximum-Flux-Residual          L2-NORM 
          0                 1           2             5    8     1       0.8598639920E-02       5    8    1         0.4567757861E+00      0.1315118405E+01
          0                 2           2             4    7     1      -0.1236194679E-01       5    8    1        -0.6656410851E+00      0.1629022429E+01
          0                 3           2             4    7     1       0.8411363854E-03       5    8    1         0.4655791084E-01      0.1139403965E+00
          0                 4           1             4    7     1      -0.3346961495E-04       5    8    1        -0.1904222730E-02      0.4660110745E-02

    ------------------------------------------------
       NWT REQUIRED            4 OUTER ITERATIONS 
       AND A TOTAL OF          7 INNER ITERATIONS.
    ------------------------------------------------

 NO OUTPUT CONTROL FOR STRESS PERIOD   17   TIME STEP   12
 
 SOLVING FOR HEAD 
                                                   Max.-Head-Change                         Max.-Flux-Residual
  Residual-Control   Outer-Iter.   Inner-Iter.     Column Row Layer    Maximum-Head-Change  Column Row Layer    Maximum-Flux-Residual          L2-NORM 
          0                 1           2             5    8     1       0.8744242171E-02       5    8    1         0.4647912631E+00      0.1316709083E+01
          0                 2           2             4    7     1      -0.1236702021E-01       5    8    1        -0.6664426411E+00      0.1630407423E+01
          0                 3           2             4    7     1       0.8414818688E-03       5    8    1         0.4661401881E-01      0.1140375747E+00
          0                 4           1             4    7     1      -0.3348336234E-04       5    8    1        -0.1906517542E-02      0.4664094663E-02

    ------------------------------------------------
       NWT REQUIRED            4 OUTER ITERATIONS 
       AND A TOTAL OF          7 INNER ITERATIONS.
    ------------------------------------------------

 NO OUTPUT CONTROL FOR STRESS PERIOD   17   TIME STEP   13
 
 SOLVING FOR HEAD 
                                                   Max.-Head-Change                         Max.-Flux-Residual
  Residual-Control   Outer-Iter.   Inner-Iter.     Column Row Layer    Maximum-Head-Change  Column Row Layer    Maximum-Flux-Residual          L2-NORM 
          0                 1           2             5    8     1       0.8881604496E-02       5    8    1         0.4723484296E+00      0.1319349583E+01
          0                 2           2             4    7     1      -0.1237222707E-01       5    8    1        -0.6671983656E+00      0.1631748175E+01
          0                 3           2             4    7     1       0.8418364385E-03       5    8    1         0.4666691861E-01      0.1141315615E+00
          0                 4           1             4    7     1      -0.3349747077E-04       5    8    1        -0.1908681158E-02      0.4667950197E-02

    ------------------------------------------------
       NWT REQUIRED            4 OUTER ITERATIONS 
       AND A TOTAL OF          7 INNER ITERATIONS.
    ------------------------------------------------

 NO OUTPUT CONTROL FOR STRESS PERIOD   17   TIME STEP   14
 
 SOLVING FOR HEAD 
                                                   Max.-Head-Change                         Max.-Flux-Residual
  Residual-Control   Outer-Iter.   Inner-Iter.     Column Row Layer    Maximum-Head-Change  Column Row Layer    Maximum-Flux-Residual          L2-NORM 
          0                 1           2             5    8     1       0.9011561133E-02       5    8    1         0.4794941403E+00      0.1322794321E+01
          0                 2           2             4    7     1      -0.1237755988E-01       5    8    1        -0.6679129440E+00      0.1633044366E+01
          0                 3           2             4    7     1       0.8421995846E-03       5    8    1         0.4671693828E-01      0.1142224276E+00
          0                 4           1             4    7     1      -0.3351192078E-04       5    8    1        -0.1910726975E-02      0.4671676853E-02

    ------------------------------------------------
       NWT REQUIRED            4 OUTER ITERATIONS 
       AND A TOTAL OF          7 INNER ITERATIONS.
    ------------------------------------------------

 NO OUTPUT CONTROL FOR STRESS PERIOD   17   TIME STEP   15
 
 SOLVING FOR HEAD 
                                                   Max.-Head-Change                         Max.-Flux-Residual
  Residual-Control   Outer-Iter.   Inner-Iter.     Column Row Layer    Maximum-Head-Change  Column Row Layer    Maximum-Flux-Residual          L2-NORM 
          0                 1           2             5    8     1       0.9134463195E-02       5    8    1         0.4862479911E+00      0.1326872844E+01
          0                 2           2             4    7     1      -0.1238299981E-01       5    8    1        -0.6685883360E+00      0.1634298135E+01
          0                 3           2             4    7     1       0.8425700245E-03       5    8    1         0.4676421495E-01      0.1143102832E+00
          0                 4           1             4    7     1      -0.3352666102E-04       5    8    1        -0.1912660579E-02      0.4675272228E-02

    ------------------------------------------------
       NWT REQUIRED            4 OUTER ITERATIONS 
       AND A TOTAL OF          7 INNER ITERATIONS.
    ------------------------------------------------

 NO OUTPUT CONTROL FOR STRESS PERIOD   17   TIME STEP   16
 
 SOLVING FOR HEAD 
                                                   Max.-Head-Change                         Max.-Flux-Residual
  Residual-Control   Outer-Iter.   Inner-Iter.     Column Row Layer    Maximum-Head-Change  Column Row Layer    Maximum-Flux-Residual          L2-NORM 
          0                 1           2             5    8     1       0.9250634462E-02       5    8    1         0.4926281870E+00      0.1331423776E+01
          0                 2           2             4    7     1      -0.1238852935E-01       5    8    1        -0.6692263622E+00      0.1635510421E+01
          0                 3           2             4    7     1       0.8426457197E-03       5    8    1         0.4680887607E-01      0.1143780265E+00
          0                 4           1             4    7     1      -0.3352966631E-04       5    8    1        -0.1914487246E-02      0.4678048453E-02

    ------------------------------------------------
       NWT REQUIRED            4 OUTER ITERATIONS 
       AND A TOTAL OF          7 INNER ITERATIONS.
    ------------------------------------------------

 NO OUTPUT CONTROL FOR STRESS PERIOD   17   TIME STEP   17
 
 SOLVING FOR HEAD 
                                                   Max.-Head-Change                         Max.-Flux-Residual
  Residual-Control   Outer-Iter.   Inner-Iter.     Column Row Layer    Maximum-Head-Change  Column Row Layer    Maximum-Flux-Residual          L2-NORM 
          0                 1           2             5    8     1       0.9360652512E-02       5    8    1         0.4986672796E+00      0.1336313942E+01
          0                 2           2             4    7     1      -0.1239606376E-01       5    8    1        -0.6698302776E+00      0.1636724887E+01
          0                 3           2             4    7     1       0.8390540313E-03       5    8    1         0.4685114950E-01      0.1143684860E+00
          0                 4           1             4    7     1      -0.3338674967E-04       5    8    1        -0.1916216223E-02      0.4677662981E-02

    ------------------------------------------------
       NWT REQUIRED            4 OUTER ITERATIONS 
       AND A TOTAL OF          7 INNER ITERATIONS.
    ------------------------------------------------

 NO OUTPUT CONTROL FOR STRESS PERIOD   17   TIME STEP   18
 
 SOLVING FOR HEAD 
                                                   Max.-Head-Change                         Max.-Flux-Residual
  Residual-Control   Outer-Iter.   Inner-Iter.     Column Row Layer    Maximum-Head-Change  Column Row Layer    Maximum-Flux-Residual          L2-NORM 
          0                 1           2             5    8     1       0.9464914609E-02       5    8    1         0.5043871995E+00      0.1341402459E+01
          0                 2           2             4    7     1      -0.1240585193E-01       5    8    1        -0.6704022754E+00      0.1637802118E+01
          0                 3           2             4    7     1       0.8441271914E-03       5    8    1         0.4689118872E-01      0.1145558095E+00
          0                 4           1             4    7     1      -0.3358861533E-04       5    8    1        -0.1917853835E-02      0.4685333427E-02

    ------------------------------------------------
       NWT REQUIRED            4 OUTER ITERATIONS 
       AND A TOTAL OF          7 INNER ITERATIONS.
    ------------------------------------------------

 NO OUTPUT CONTROL FOR STRESS PERIOD   17   TIME STEP   19
 
 SOLVING FOR HEAD 
                                                   Max.-Head-Change                         Max.-Flux-Residual
  Residual-Control   Outer-Iter.   Inner-Iter.     Column Row Layer    Maximum-Head-Change  Column Row Layer    Maximum-Flux-Residual          L2-NORM 
          0                 1           2             5    8     1       0.9563789412E-02       5    8    1         0.5098088268E+00      0.1346677265E+01
          0                 2           2             4    7     1      -0.1241119862E-01       5    8    1        -0.6709444436E+00      0.1638887485E+01
          0                 3           2             4    7     1       0.8444912856E-03       5    8    1         0.4692913991E-01      0.1146318328E+00
          0                 4           1             4    7     1      -0.3360310287E-04       5    8    1        -0.1919406046E-02      0.4688437360E-02

    ------------------------------------------------
       NWT REQUIRED            4 OUTER ITERATIONS 
       AND A TOTAL OF          7 INNER ITERATIONS.
    ------------------------------------------------

 NO OUTPUT CONTROL FOR STRESS PERIOD   17   TIME STEP   20
 
 SOLVING FOR HEAD 
                                                   Max.-Head-Change                         Max.-Flux-Residual
  Residual-Control   Outer-Iter.   Inner-Iter.     Column Row Layer    Maximum-Head-Change  Column Row Layer    Maximum-Flux-Residual          L2-NORM 
          0                 1           2             5    8     1       0.9657339195E-02       5    8    1         0.5149353594E+00      0.1352051551E+01
          0                 2           2             4    7     1      -0.1241659168E-01       5    8    1        -0.6714571020E+00      0.1639934697E+01
          0                 3           2             4    7     1       0.8448585357E-03       5    8    1         0.4696502545E-01      0.1147051722E+00
          0                 4           1             4    7     1      -0.3361771648E-04       5    8    1        -0.1920873774E-02      0.4691439900E-02

    ------------------------------------------------
       NWT REQUIRED            4 OUTER ITERATIONS 
       AND A TOTAL OF          7 INNER ITERATIONS.
    ------------------------------------------------

 NO OUTPUT CONTROL FOR STRESS PERIOD   17   TIME STEP   21
 
 SOLVING FOR HEAD 
                                                   Max.-Head-Change                         Max.-Flux-Residual
  Residual-Control   Outer-Iter.   Inner-Iter.     Column Row Layer    Maximum-Head-Change  Column Row Layer    Maximum-Flux-Residual          L2-NORM 
          0                 1           2             5    8     1       0.9746321981E-02       5    8    1         0.5198094549E+00      0.1357488878E+01
          0                 2           2             4    7     1      -0.1242201788E-01       5    8    1        -0.6719445164E+00      0.1640946867E+01
          0                 3           2             4    7     1       0.8452280422E-03       5    8    1         0.4699914395E-01      0.1147760498E+00
          0                 4           1             4    7     1      -0.3363241919E-04       5    8    1        -0.1922269236E-02      0.4694338771E-02

    ------------------------------------------------
       NWT REQUIRED            4 OUTER ITERATIONS 
       AND A TOTAL OF          7 INNER ITERATIONS.
    ------------------------------------------------

 NO OUTPUT CONTROL FOR STRESS PERIOD   17   TIME STEP   22
 
 SOLVING FOR HEAD 
                                                   Max.-Head-Change                         Max.-Flux-Residual
  Residual-Control   Outer-Iter.   Inner-Iter.     Column Row Layer    Maximum-Head-Change  Column Row Layer    Maximum-Flux-Residual          L2-NORM 
          0                 1           2             5    8     1       0.9830598004E-02       5    8    1         0.5244231011E+00      0.1362947288E+01
          0                 2           2             4    7     1      -0.1242749152E-01       5    8    1        -0.6724058856E+00      0.1641924584E+01
          0                 3           2             4    7     1       0.8456007792E-03       5    8    1         0.4703143934E-01      0.1148445129E+00
          0                 4           1             4    7     1      -0.3364725097E-04       5    8    1        -0.1923590102E-02      0.4697139332E-02

    ------------------------------------------------
       NWT REQUIRED            4 OUTER ITERATIONS 
       AND A TOTAL OF          7 INNER ITERATIONS.
    ------------------------------------------------

 NO OUTPUT CONTROL FOR STRESS PERIOD   17   TIME STEP   23
 
 SOLVING FOR HEAD 
                                                   Max.-Head-Change                         Max.-Flux-Residual
  Residual-Control   Outer-Iter.   Inner-Iter.     Column Row Layer    Maximum-Head-Change  Column Row Layer    Maximum-Flux-Residual          L2-NORM 
          0                 1           2             5    8     1       0.9910743950E-02       5    8    1         0.5288084801E+00      0.1368407904E+01
          0                 2           2             4    7     1      -0.1243297395E-01       5    8    1        -0.6728444278E+00      0.1642870335E+01
          0                 3           2             4    7     1       0.8459741145E-03       5    8    1         0.4706213684E-01      0.1149107385E+00
          0                 4           1             4    7     1      -0.3366210623E-04       5    8    1        -0.1924845632E-02      0.4699850692E-02

    ------------------------------------------------
       NWT REQUIRED            4 OUTER ITERATIONS 
       AND A TOTAL OF          7 INNER ITERATIONS.
    ------------------------------------------------

 NO OUTPUT CONTROL FOR STRESS PERIOD   17   TIME STEP   24
 
 SOLVING FOR HEAD 
                                                   Max.-Head-Change                         Max.-Flux-Residual
  Residual-Control   Outer-Iter.   Inner-Iter.     Column Row Layer    Maximum-Head-Change  Column Row Layer    Maximum-Flux-Residual          L2-NORM 
          0                 1           2             5    8     1       0.9986874206E-02       5    8    1         0.5329718349E+00      0.1373834692E+01
          0                 2           2             4    7     1      -0.1243848175E-01       5    8    1        -0.6732607673E+00      0.1643784800E+01
          0                 3           2             4    7     1       0.8463491768E-03       5    8    1         0.4709128019E-01      0.1149747668E+00
          0                 4           1             4    7     1      -0.3367703022E-04       5    8    1        -0.1926037605E-02      0.4702472720E-02

    ------------------------------------------------
       NWT REQUIRED            4 OUTER ITERATIONS 
       AND A TOTAL OF          7 INNER ITERATIONS.
    ------------------------------------------------

 NO OUTPUT CONTROL FOR STRESS PERIOD   17   TIME STEP   25
 
 SOLVING FOR HEAD 
                                                   Max.-Head-Change                         Max.-Flux-Residual
  Residual-Control   Outer-Iter.   Inner-Iter.     Column Row Layer    Maximum-Head-Change  Column Row Layer    Maximum-Flux-Residual          L2-NORM 
          0                 1           2             5    8     1       0.1005923273E-01       5    8    1         0.5369269820E+00      0.1379201300E+01
          0                 2           2             4    7     1      -0.1244397781E-01       5    8    1        -0.6736562858E+00      0.1644667796E+01
          0                 3           2             4    7     1       0.8467234402E-03       5    8    1         0.4711896611E-01      0.1150365850E+00
          0                 4           1             4    7     1      -0.3369192243E-04       5    8    1        -0.1927169953E-02      0.4705002005E-02

    ------------------------------------------------
       NWT REQUIRED            4 OUTER ITERATIONS 
       AND A TOTAL OF          7 INNER ITERATIONS.
    ------------------------------------------------

 NO OUTPUT CONTROL FOR STRESS PERIOD   17   TIME STEP   26
 
 SOLVING FOR HEAD 
                                                   Max.-Head-Change                         Max.-Flux-Residual
  Residual-Control   Outer-Iter.   Inner-Iter.     Column Row Layer    Maximum-Head-Change  Column Row Layer    Maximum-Flux-Residual          L2-NORM 
          0                 1           2             5    8     1       0.1012818956E-01       5    8    1         0.5406944561E+00      0.1384505057E+01
          0                 2           2             4    7     1      -0.1244946712E-01       5    8    1        -0.6740330368E+00      0.1645522180E+01
          0                 3           2             4    7     1       0.8470972431E-03       5    8    1         0.4714533833E-01      0.1150964066E+00
          0                 4           1             4    7     1      -0.3370679657E-04       5    8    1        -0.1928248594E-02      0.4707450352E-02

    ------------------------------------------------
       NWT REQUIRED            4 OUTER ITERATIONS 
       AND A TOTAL OF          7 INNER ITERATIONS.
    ------------------------------------------------

 NO OUTPUT CONTROL FOR STRESS PERIOD   17   TIME STEP   27
 
 SOLVING FOR HEAD 
                                                   Max.-Head-Change                         Max.-Flux-Residual
  Residual-Control   Outer-Iter.   Inner-Iter.     Column Row Layer    Maximum-Head-Change  Column Row Layer    Maximum-Flux-Residual          L2-NORM 
          0                 1           2             5    8     1       0.1019366228E-01       5    8    1         0.5442697856E+00      0.1389737521E+01
          0                 2           2             4    7     1      -0.1245494173E-01       5    8    1        -0.6743905731E+00      0.1646349012E+01
          0                 3           2             4    7     1       0.8474700445E-03       5    8    1         0.4717036553E-01      0.1151542873E+00
          0                 4           1             4    7     1      -0.3372163065E-04       5    8    1        -0.1929272190E-02      0.4709814652E-02

    ------------------------------------------------
       NWT REQUIRED            4 OUTER ITERATIONS 
       AND A TOTAL OF          7 INNER ITERATIONS.
    ------------------------------------------------

 NO OUTPUT CONTROL FOR STRESS PERIOD   17   TIME STEP   28
 
 SOLVING FOR HEAD 
                                                   Max.-Head-Change                         Max.-Flux-Residual
  Residual-Control   Outer-Iter.   Inner-Iter.     Column Row Layer    Maximum-Head-Change  Column Row Layer    Maximum-Flux-Residual          L2-NORM 
          0                 1           2             5    8     1       0.1025600458E-01       5    8    1         0.5476723549E+00      0.1394865021E+01
          0                 2           2             4    7     1      -0.1246038036E-01       5    8    1        -0.6747308332E+00      0.1647147240E+01
          0                 3           2             4    7     1       0.8478403964E-03       5    8    1         0.4719418344E-01      0.1152101714E+00
          0                 4           1             4    7     1      -0.3373636744E-04       5    8    1        -0.1930246379E-02      0.4712101656E-02

    ------------------------------------------------
       NWT REQUIRED            4 OUTER ITERATIONS 
       AND A TOTAL OF          7 INNER ITERATIONS.
    ------------------------------------------------

 NO OUTPUT CONTROL FOR STRESS PERIOD   17   TIME STEP   29
 
 SOLVING FOR HEAD 
                                                   Max.-Head-Change                         Max.-Flux-Residual
  Residual-Control   Outer-Iter.   Inner-Iter.     Column Row Layer    Maximum-Head-Change  Column Row Layer    Maximum-Flux-Residual          L2-NORM 
          0                 1           2             5    8     1       0.1031255074E-01       5    8    1         0.5509126169E+00      0.1438815218E+01
          0                 2           2             4    7     1      -0.1246579946E-01       5    8    1        -0.6750548593E+00      0.1648230190E+01
          0                 3           2             4    7     1       0.8482094172E-03       5    8    1         0.4721686543E-01      0.1152836967E+00
          0                 4           1             4    7     1      -0.3375105070E-04       5    8    1        -0.1931174055E-02      0.4714965008E-02

    ------------------------------------------------
       NWT REQUIRED            4 OUTER ITERATIONS 
       AND A TOTAL OF          7 INNER ITERATIONS.
    ------------------------------------------------

 NO OUTPUT CONTROL FOR STRESS PERIOD   17   TIME STEP   30



 STREAM LISTING     PERIOD     17   STEP       30

 LAYER ROW COL. STREAM  RCH.  FLOW INTO     FLOW TO   FLOW OUT OF   OVRLND.     DIRECT     STREAM       STREAM     STREAM     STREAM   STREAMBED  STREAMBED
                SEG.NO.  NO.  STRM. RCH.    AQUIFER    STRM. RCH.    RUNOFF     PRECIP       ET          HEAD       DEPTH      WIDTH   CONDCTNC.   GRADIENT

   1    1    1     1     1    6.5908E+01  3.9227E-01   6.5516E+01  0.000E+00  0.000E+00  0.000E+00  1.09464E+03  1.596E+00  1.897E+01  8.536E-02  1.532E+00
   1    2    2     1     2    6.5516E+01  6.0756E-01   6.4909E+01  0.000E+00  0.000E+00  0.000E+00  1.08965E+03  1.590E+00  1.891E+01  1.324E-01  1.530E+00
   1    3    3     1     3    6.4909E+01  5.1821E-01   6.4390E+01  0.000E+00  0.000E+00  0.000E+00  1.08400E+03  1.583E+00  1.884E+01  1.131E-01  1.528E+00
   1    3    4     1     4    6.4390E+01  4.7725E-01   6.3913E+01  0.000E+00  0.000E+00  0.000E+00  1.07899E+03  1.577E+00  1.879E+01  1.043E-01  1.526E+00
   1    4    5     2     1    6.1913E+01  3.9598E-01   6.1517E+01  0.000E+00  0.000E+00  0.000E+00  1.07401E+03  2.077E+00  1.200E+01  7.800E-02  1.692E+00
   1    5    6     2     2    6.1517E+01  3.0418E-01   6.1213E+01  0.000E+00  0.000E+00  0.000E+00  1.06858E+03  2.070E+00  1.200E+01  6.000E-02  1.690E+00
   1    6    6     2     3    6.1213E+01  3.0381E-01   6.0909E+01  0.000E+00  0.000E+00  0.000E+00  1.06386E+03  2.063E+00  1.200E+01  6.000E-02  1.688E+00
   1    7    6     2     4    6.0909E+01  3.0344E-01   6.0606E+01  0.000E+00  0.000E+00  0.000E+00  1.05913E+03  2.057E+00  1.200E+01  6.000E-02  1.686E+00
   1    8    6     2     5    6.0606E+01  3.0307E-01   6.0303E+01  0.000E+00  0.000E+00  0.000E+00  1.05441E+03  2.051E+00  1.200E+01  6.000E-02  1.684E+00
   1    3    5     3     1    2.0000E+00  2.8252E-01   1.7175E+00  0.000E+00  0.000E+00  0.000E+00  1.07555E+03  1.909E+00  9.636E+00  7.227E-02  1.955E+00
   1    3    6     3     2    1.7175E+00  2.4905E-01   1.4684E+00  0.000E+00  0.000E+00  0.000E+00  1.07264E+03  1.727E+00  8.909E+00  6.682E-02  1.864E+00
   1    3    7     3     3    1.4684E+00  1.9718E-01   1.2712E+00  0.000E+00  0.000E+00  0.000E+00  1.06987E+03  1.555E+00  8.218E+00  5.547E-02  1.777E+00
   1    4    8     3     4    1.2712E+00  2.2567E-01   1.0456E+00  0.000E+00  0.000E+00  0.000E+00  1.06682E+03  1.364E+00  7.455E+00  6.709E-02  1.682E+00
   1    5    8     3     5    1.0456E+00  1.5790E-01   8.8768E-01  0.000E+00  0.000E+00  0.000E+00  1.06362E+03  1.164E+00  6.655E+00  4.991E-02  1.582E+00
   1    6    8     3     6    8.8768E-01  5.5980E-02   8.3170E-01  0.000E+00  0.000E+00  0.000E+00  1.06158E+03  1.036E+00  6.145E+00  1.844E-02  1.518E+00
   1    5   10     4     1    1.0000E+01  9.0919E-02   9.9091E+00  0.000E+00  0.000E+00  0.000E+00  1.07836E+03  6.368E-01  1.000E+01  2.500E-02  1.212E+00
   1    5    9     4     2    9.9091E+00  1.8158E-01   9.7275E+00  0.000E+00  0.000E+00  0.000E+00  1.07154E+03  6.315E-01  1.000E+01  5.000E-02  1.211E+00
   1    6    8     4     3    9.7275E+00  1.2689E-01   9.6006E+00  0.000E+00  0.000E+00  0.000E+00  1.06381E+03  6.256E-01  1.000E+01  3.500E-02  1.209E+00
   1    6    8     5     1    1.0432E+01  2.2686E-01   1.0205E+01  0.000E+00  0.000E+00  0.000E+00  1.05868E+03  6.790E-01  1.542E+01  6.166E-02  1.226E+00
   1    7    7     5     2    1.0205E+01  2.7894E-01   9.9265E+00  0.000E+00  0.000E+00  0.000E+00  1.05417E+03  6.732E-01  1.519E+01  7.594E-02  1.224E+00
   1    8    7     5     3    9.9265E+00  1.9221E-01   9.7343E+00  0.000E+00  0.000E+00  0.000E+00  1.04992E+03  6.676E-01  1.497E+01  5.241E-02  1.223E+00
   1    8    6     5     4    9.7343E+00  1.3577E-01   9.5985E+00  0.000E+00  0.000E+00  0.000E+00  1.04691E+03  6.637E-01  1.482E+01  3.706E-02  1.221E+00
   1    9    6     6     1    6.9901E+01  3.1559E-01   6.9586E+01  0.000E+00  0.000E+00  0.000E+00  1.04499E+03  2.260E+00  1.200E+01  6.000E-02  1.753E+00
   1   10    7     6     2    6.9586E+01  3.1522E-01   6.9270E+01  0.000E+00  0.000E+00  0.000E+00  1.04044E+03  2.254E+00  1.200E+01  6.000E-02  1.751E+00
   1   11    7     6     3    6.9270E+01  3.1485E-01   6.8955E+01  0.000E+00  0.000E+00  0.000E+00  1.03588E+03  2.248E+00  1.200E+01  6.000E-02  1.749E+00
   1   12    7     6     4    6.8955E+01  3.1448E-01   6.8641E+01  0.000E+00  0.000E+00  0.000E+00  1.03133E+03  2.241E+00  1.200E+01  6.000E-02  1.747E+00
   1   13    7     6     5    6.8641E+01  2.4919E-02   6.8616E+01  0.000E+00  0.000E+00  0.000E+00  1.02815E+03  2.238E+00  1.200E+01  2.400E-02  3.461E-01
   1   14    9     7     1    1.5000E+02  1.3306E+00   1.4867E+02  0.000E+00  0.000E+00  0.000E+00  1.03987E+03  2.288E+00  5.529E+01  5.593E-01  7.930E-01
   1   13    8     7     2    1.4867E+02  1.8222E+00   1.4685E+02  0.000E+00  0.000E+00  0.000E+00  1.03478E+03  2.279E+00  5.526E+01  6.148E-01  9.880E-01
   1   13    7     7     3    1.4685E+02  1.4415E+00   1.4541E+02  0.000E+00  0.000E+00  0.000E+00  1.02969E+03  2.271E+00  5.522E+01  5.585E-01  8.604E-01
   1   13    6     8     1    2.1402E+02  1.0674E+00   2.1295E+02  0.000E+00  0.000E+00  0.000E+00  1.02509E+03  3.215E+00  4.662E+01  4.751E-01  7.489E-01
   1   13    5     8     2    2.1295E+02  2.5518E-01   2.1270E+02  0.000E+00  0.000E+00  0.000E+00  1.01884E+03  3.212E+00  4.657E+01  4.746E-01  1.792E-01
   1   13    4     8     3    2.1270E+02 -2.3202E+00   2.1502E+02  0.000E+00  0.000E+00  0.000E+00  1.01259E+03  3.218E+00  4.665E+01  4.754E+00 -1.627E-01
   1   13    3     8     4    2.1502E+02 -3.6147E+00   2.1863E+02  0.000E+00  0.000E+00  0.000E+00  1.00636E+03  3.234E+00  4.690E+01  4.779E+00 -2.521E-01
   1   13    2     8     5    2.1863E+02 -2.7123E+00   2.2135E+02  0.000E+00  0.000E+00  0.000E+00  1.00013E+03  3.252E+00  4.715E+01  4.805E+00 -1.882E-01
   1   13    1     8     6    2.2135E+02 -2.0832E+00   2.2343E+02  0.000E+00  0.000E+00  0.000E+00  9.95140E+02  3.265E+00  4.734E+01  2.895E+00 -2.399E-01





UNSATURATED ZONE PACKAGE VOLUMETRIC BUDGET FOR  TIME STEP    30 STRESS PERIOD   17
  ------------------------------------------------------------------------------



     CUMULATIVE VOLUMES      L**3       RATES FOR THIS TIME STEP      L**3/T
     ------------------                 ------------------------

           IN:                                      IN:
           ---                                      ---
        INFILTRATION =   521364505.9036          INFILTRATION =           4.5675

          OUT:                                     OUT:
          ----                                     ----
              UZF ET =   449267881.5776                UZF ET =           4.5675
        UZF RECHARGE =    72024631.8946          UZF RECHARGE =       0.0000E+00

            IN - OUT =       71992.4314              IN - OUT =       0.0000E+00

          STORAGE:                                 STORAGE:
          --------                                 --------
      STORAGE CHANGE =       71986.4153        STORAGE CHANGE =      -3.7920E-12

 PERCENT DISCREPANCY IS DIFFERENCE BETWEEN IN-OUT MINUS CHANGE IN STORAGE
 DIVIDED BY THE AVERAGE OF IN AND OUT TIMES 100

 PERCENT DISCREPANCY =           0.00     PERCENT DISCREPANCY =           0.00






1
  VOLUMETRIC BUDGET FOR AGRICULTURAL FIELDS AT  END OF TIME STEP   30, STRESS PERIOD  17
  ------------------------------------------------------------------------------

     CUMULATIVE VOLUMES      L**3       RATES FOR THIS TIME STEP      L**3/T
     ------------------                 ------------------------

           IN:                                      IN:
           ---                                      ---
           AG WELLS      =   485627776.0000             AG WELLS      =           3.7200
      DIVERSION SEGMENTS =           0.0000        DIVERSION SEGMENTS =           0.0000
           GW IRRIGATION =           0.0000             GW IRRIGATION =           0.0000
           SW IRRIGATION =           0.0000             SW IRRIGATION =           0.0000
        SYSTEM LOSSES GW =           0.0000          SYSTEM LOSSES GW =           0.0000
        SYSTEM LOSSES SW =           0.0000          SYSTEM LOSSES SW =           0.0000

                TOTAL IN =   485627776.0000                  TOTAL IN =           3.7200

          OUT:                                     OUT:
          ----                                     ----
           AG WELLS      =           0.0000             AG WELLS      =           0.0000
      DIVERSION SEGMENTS =           0.0000        DIVERSION SEGMENTS =           0.0000
           GW IRRIGATION =   485627776.0000             GW IRRIGATION =           3.7200
           SW IRRIGATION =           0.0000             SW IRRIGATION =           0.0000
        SYSTEM LOSSES GW =           0.0000          SYSTEM LOSSES GW =           0.0000
        SYSTEM LOSSES SW =           0.0000          SYSTEM LOSSES SW =           0.0000

               TOTAL OUT =   485627776.0000                 TOTAL OUT =           3.7200

                IN - OUT =           0.0000                  IN - OUT =           0.0000

     PERCENT DISCREPANCY =           0.00         PERCENT DISCREPANCY =           0.00



1
  VOLUMETRIC BUDGET FOR ENTIRE MODEL AT END OF TIME STEP   30, STRESS PERIOD  17
  ------------------------------------------------------------------------------

     CUMULATIVE VOLUMES      L**3       RATES FOR THIS TIME STEP      L**3/T
     ------------------                 ------------------------

           IN:                                      IN:
           ---                                      ---
             STORAGE     =   642749248.0000               STORAGE     =           3.4473
       CONSTANT HEAD     =           0.0000         CONSTANT HEAD     =           0.0000
     HEAD DEP BOUNDS     =    12034782.0000       HEAD DEP BOUNDS     =           0.2854
      STREAM LEAKAGE     =   527622496.0000        STREAM LEAKAGE     =          13.2091
        UZF RECHARGE     =    72024584.0000          UZF RECHARGE     =           0.0000
               GW ET     =           0.0000                 GW ET     =           0.0000
     SURFACE LEAKAGE     =           0.0000       SURFACE LEAKAGE     =           0.0000
           AG WELLS      =           0.0000             AG WELLS      =           0.0000

                TOTAL IN =  1254431104.0000                  TOTAL IN =          16.9418

          OUT:                                     OUT:
          ----                                     ----
             STORAGE     =   307750944.0000               STORAGE     =           1.9492
       CONSTANT HEAD     =           0.0000         CONSTANT HEAD     =           0.0000
     HEAD DEP BOUNDS     =    12416438.0000       HEAD DEP BOUNDS     =           0.2987
      STREAM LEAKAGE     =   434100704.0000        STREAM LEAKAGE     =          10.7305
        UZF RECHARGE     =           0.0000          UZF RECHARGE     =           0.0000
               GW ET     =    14536797.0000                 GW ET     =           0.2433
     SURFACE LEAKAGE     =           0.0000       SURFACE LEAKAGE     =           0.0000
           AG WELLS      =   485627776.0000             AG WELLS      =           3.7200

               TOTAL OUT =  1254432640.0000                 TOTAL OUT =          16.9417

                IN - OUT =       -1536.0000                  IN - OUT =       1.4877E-04

     PERCENT DISCREPANCY =          -0.00         PERCENT DISCREPANCY =           0.00






         TIME SUMMARY AT END OF TIME STEP   30 IN STRESS PERIOD   17
                    SECONDS     MINUTES      HOURS       DAYS        YEARS
                    -----------------------------------------------------------
   TIME STEP LENGTH  87667.      1461.1      24.352      1.0147     2.77799E-03
 STRESS PERIOD TIME 2.63000E+06  43833.      730.56      30.440     8.33397E-02
         TOTAL TIME 4.21664E+07 7.02774E+05  11713.      488.04      1.3362    
1
1
                            STRESS PERIOD NO.   18, LENGTH =   2630000.    
                            -----------------------------------------------

                              NUMBER OF TIME STEPS =    30

                               MULTIPLIER FOR DELT =     1.000

                            INITIAL TIME STEP SIZE =   87666.66    

 REUSING NON-PARAMETER GHB CELLS FROM LAST STRESS PERIOD

      2 GHB CELLS

 REUSING STREAM SEGMENT DATA FROM LAST STRESS PERIOD



            AREAL INFILTRATION RATE
 READING ON UNIT   19 WITH FORMAT: (FREE)              

            1           2           3           4           5           6           7           8           9          10
 ........................................................................................................................
   1   1.0000E-10  2.0000E-10   0.000       0.000       0.000       0.000       0.000       0.000       0.000       0.000    
   2   2.0000E-10  1.0000E-10  2.0000E-10   0.000       0.000      8.0000E-10  8.0000E-10  5.0000E-10   0.000       0.000    
   3    0.000      5.0000E-10  1.0000E-10  1.0000E-10  8.0000E-10  8.0000E-10  5.0000E-10  5.0000E-10   0.000       0.000    
   4   8.0000E-10  5.0000E-10  1.0000E-10  1.0000E-10  1.0000E-10  1.0000E-10  1.0000E-10  1.0000E-10  2.0000E-10   0.000    
   5   8.0000E-10  5.0000E-10  1.0000E-10  1.0000E-10  1.0000E-10  1.0000E-10  1.0000E-10  1.0000E-10  1.0000E-10  1.0000E-10
   6   8.0000E-10  5.0000E-10  5.0000E-10  2.0000E-10  2.0000E-10  1.0000E-10  1.0000E-10  1.0000E-10  1.0000E-10  5.0000E-10
   7   8.0000E-10  5.0000E-10  5.0000E-10  2.0000E-10  2.0000E-10  1.0000E-10  1.0000E-10  2.0000E-10  2.0000E-10   0.000    
   8    0.000      5.0000E-10  5.0000E-10  2.0000E-10  2.0000E-10  1.0000E-10  1.0000E-10  2.0000E-10  5.0000E-10   0.000    
   9    0.000      5.0000E-10  5.0000E-10  2.0000E-10  2.0000E-10  1.0000E-10  1.0000E-10  2.0000E-10  5.0000E-10   0.000    
  10    0.000      5.0000E-10  5.0000E-10  2.0000E-10  2.0000E-10  1.0000E-10  1.0000E-10  2.0000E-10  5.0000E-10  8.0000E-10
  11    0.000      1.0000E-10  1.0000E-10  1.0000E-10  1.0000E-10  1.0000E-10  1.0000E-10  2.0000E-10  5.0000E-10   0.000    
  12   1.0000E-10  1.0000E-10  1.0000E-10  1.0000E-10  1.0000E-10  1.0000E-10  1.0000E-10  1.0000E-10  2.0000E-10   0.000    
  13   1.0000E-10  1.0000E-10  2.0000E-10  2.0000E-10  2.0000E-10  2.0000E-10  2.0000E-10  1.0000E-10  1.0000E-10   0.000    
  14    0.000      2.0000E-10  5.0000E-10  5.0000E-10  5.0000E-10  5.0000E-10  5.0000E-10  2.0000E-10  1.0000E-10   0.000    
  15    0.000       0.000      8.0000E-10  8.0000E-10  8.0000E-10  8.0000E-10   0.000       0.000       0.000       0.000    

                  ET RATE =  5.000000E-08

 USING ET EXTINCTION DEPTH FROM PREVIOUS STRESS PERIOD. CURRENT PERIOD IS:      18

 USING EXTINCTION WATER CONTENT FROM PREVIOUS STRESS PERIOD. CURRENT PERIOD IS:      18

 USING AIR ENTRY PRESSURE FROM PREVIOUS STRESS PERIOD. CURRENT PERIOD IS:      18

 USING ROOT PRESSURE HEAD FROM PREVIOUS STRESS PERIOD. CURRENT PERIOD IS:      18

 USING ROOT ACTIVITY FROM PREVIOUS STRESS PERIOD. CURRENT PERIOD IS:      18

 PROCESSING AG STRESS PERIOD DATA

 READING AG STRESS PERIOD DATA

 READING IRRIGATION WELL

 END PROCESSING AG STRESS PERIOD DATA OPTIONS
 
 SOLVING FOR HEAD 
                                                   Max.-Head-Change                         Max.-Flux-Residual
  Residual-Control   Outer-Iter.   Inner-Iter.     Column Row Layer    Maximum-Head-Change  Column Row Layer    Maximum-Flux-Residual          L2-NORM 
          0                 1           2             4    7     1      -0.1447405570E-01       4    7    1        -0.7579700124E+00      0.1937449430E+01
          0                 2           2             4    7     1       0.1407929594E-02       4    7    1         0.7579692024E-01      0.1932440912E+00
          0                 3           1             4    7     1      -0.9587479844E-04       4    7    1        -0.5305787475E-02      0.1348168431E-01

    ------------------------------------------------
       NWT REQUIRED            3 OUTER ITERATIONS 
       AND A TOTAL OF          5 INNER ITERATIONS.
    ------------------------------------------------

 NO OUTPUT CONTROL FOR STRESS PERIOD   18   TIME STEP    1
 
 SOLVING FOR HEAD 
                                                   Max.-Head-Change                         Max.-Flux-Residual
  Residual-Control   Outer-Iter.   Inner-Iter.     Column Row Layer    Maximum-Head-Change  Column Row Layer    Maximum-Flux-Residual          L2-NORM 
          0                 1           2             5    8     1       0.1074736585E-01       5    8    1         0.5748476144E+00      0.1514881378E+01
          0                 2           2             4    7     1      -0.2403366899E-01       5    8    1        -0.1297448324E+01      0.3170826877E+01
          0                 3           2             4    7     1       0.1636137882E-02       5    8    1         0.9079466553E-01      0.2218917740E+00
          0                 4           1             4    7     1      -0.6510347415E-04       5    8    1        -0.3713512769E-02      0.9075256677E-02

    ------------------------------------------------
       NWT REQUIRED            4 OUTER ITERATIONS 
       AND A TOTAL OF          7 INNER ITERATIONS.
    ------------------------------------------------

 NO OUTPUT CONTROL FOR STRESS PERIOD   18   TIME STEP    2
 
 SOLVING FOR HEAD 
                                                   Max.-Head-Change                         Max.-Flux-Residual
  Residual-Control   Outer-Iter.   Inner-Iter.     Column Row Layer    Maximum-Head-Change  Column Row Layer    Maximum-Flux-Residual          L2-NORM 
          0                 1           2             5    8     1       0.1110308114E-01       5    8    1         0.5943903041E+00      0.1523244074E+01
          0                 2           2             4    7     1      -0.2413891544E-01       5    8    1        -0.1304413819E+01      0.3186430770E+01
          0                 3           2             4    7     1       0.1643304774E-02       5    8    1         0.9128223583E-01      0.2229844895E+00
          0                 4           1             4    7     1      -0.6538865155E-04       5    8    1        -0.3733454490E-02      0.9119973348E-02

    ------------------------------------------------
       NWT REQUIRED            4 OUTER ITERATIONS 
       AND A TOTAL OF          7 INNER ITERATIONS.
    ------------------------------------------------

 NO OUTPUT CONTROL FOR STRESS PERIOD   18   TIME STEP    3
 
 SOLVING FOR HEAD 
                                                   Max.-Head-Change                         Max.-Flux-Residual
  Residual-Control   Outer-Iter.   Inner-Iter.     Column Row Layer    Maximum-Head-Change  Column Row Layer    Maximum-Flux-Residual          L2-NORM 
          0                 1           2             5    8     1       0.1144246315E-01       5    8    1         0.6130206102E+00      0.1536175496E+01
          0                 2           2             4    7     1      -0.2415123400E-01       5    8    1        -0.1306276873E+01      0.3189689435E+01
          0                 3           2             4    7     1       0.1644143646E-02       5    8    1         0.9141264506E-01      0.2232129324E+00
          0                 4           1             4    7     1      -0.6542203130E-04       5    8    1        -0.3738788242E-02      0.9129336630E-02

    ------------------------------------------------
       NWT REQUIRED            4 OUTER ITERATIONS 
       AND A TOTAL OF          7 INNER ITERATIONS.
    ------------------------------------------------

 NO OUTPUT CONTROL FOR STRESS PERIOD   18   TIME STEP    4
 
 SOLVING FOR HEAD 
                                                   Max.-Head-Change                         Max.-Flux-Residual
  Residual-Control   Outer-Iter.   Inner-Iter.     Column Row Layer    Maximum-Head-Change  Column Row Layer    Maximum-Flux-Residual          L2-NORM 
          0                 1           2             5    8     1       0.1176398275E-01       5    8    1         0.6306559420E+00      0.1552323465E+01
          0                 2           2             4    7     1      -0.2416387676E-01       5    8    1        -0.1308040429E+01      0.3192852131E+01
          0                 3           2             4    7     1       0.1644953043E-02       5    8    1         0.9153608972E-01      0.2233279304E+00
          0                 4           1             4    7     1      -0.6545423721E-04       5    8    1        -0.3743837175E-02      0.9134054402E-02

    ------------------------------------------------
       NWT REQUIRED            4 OUTER ITERATIONS 
       AND A TOTAL OF          7 INNER ITERATIONS.
    ------------------------------------------------

 NO OUTPUT CONTROL FOR STRESS PERIOD   18   TIME STEP    5
 
 SOLVING FOR HEAD 
                                                   Max.-Head-Change                         Max.-Flux-Residual
  Residual-Control   Outer-Iter.   Inner-Iter.     Column Row Layer    Maximum-Head-Change  Column Row Layer    Maximum-Flux-Residual          L2-NORM 
          0                 1           2             5    8     1       0.1206869146E-01       5    8    1         0.6473542709E+00      0.1570713419E+01
          0                 2           2             4    7     1      -0.2417682460E-01       5    8    1        -0.1309710283E+01      0.3195943723E+01
          0                 3           2             4    7     1       0.1645726947E-02       5    8    1         0.9165297561E-01      0.2233660667E+00
          0                 4           1             4    7     1      -0.6548503177E-04       5    8    1        -0.3748617859E-02      0.9135632237E-02

    ------------------------------------------------
       NWT REQUIRED            4 OUTER ITERATIONS 
       AND A TOTAL OF          7 INNER ITERATIONS.
    ------------------------------------------------

 NO OUTPUT CONTROL FOR STRESS PERIOD   18   TIME STEP    6
 
 SOLVING FOR HEAD 
                                                   Max.-Head-Change                         Max.-Flux-Residual
  Residual-Control   Outer-Iter.   Inner-Iter.     Column Row Layer    Maximum-Head-Change  Column Row Layer    Maximum-Flux-Residual          L2-NORM 
          0                 1           2             5    8     1       0.1235781720E-01       5    8    1         0.6631927627E+00      0.1590642600E+01
          0                 2           2             4    7     1      -0.2419017055E-01       5    8    1        -0.1311294153E+01      0.3198870359E+01
          0                 3           2             4    7     1       0.1646795222E-02       5    8    1         0.9176384329E-01      0.2238509788E+00
          0                 4           1             4    7     1      -0.6552753895E-04       5    8    1        -0.3753152338E-02      0.9155385927E-02

    ------------------------------------------------
       NWT REQUIRED            4 OUTER ITERATIONS 
       AND A TOTAL OF          7 INNER ITERATIONS.
    ------------------------------------------------

 NO OUTPUT CONTROL FOR STRESS PERIOD   18   TIME STEP    7
 
 SOLVING FOR HEAD 
                                                   Max.-Head-Change                         Max.-Flux-Residual
  Residual-Control   Outer-Iter.   Inner-Iter.     Column Row Layer    Maximum-Head-Change  Column Row Layer    Maximum-Flux-Residual          L2-NORM 
          0                 1           2             5    8     1       0.1263211429E-01       5    8    1         0.6782066571E+00      0.1611647697E+01
          0                 2           2             4    7     1      -0.2420354935E-01       5    8    1        -0.1312795563E+01      0.3201738379E+01
          0                 3           2             4    7     1       0.1647706284E-02       5    8    1         0.9186893846E-01      0.2240518042E+00
          0                 4           1             4    7     1      -0.6556379102E-04       5    8    1        -0.3757450761E-02      0.9163559241E-02

    ------------------------------------------------
       NWT REQUIRED            4 OUTER ITERATIONS 
       AND A TOTAL OF          7 INNER ITERATIONS.
    ------------------------------------------------

 NO OUTPUT CONTROL FOR STRESS PERIOD   18   TIME STEP    8
 
 SOLVING FOR HEAD 
                                                   Max.-Head-Change                         Max.-Flux-Residual
  Residual-Control   Outer-Iter.   Inner-Iter.     Column Row Layer    Maximum-Head-Change  Column Row Layer    Maximum-Flux-Residual          L2-NORM 
          0                 1           2             5    8     1       0.1289286754E-01       5    8    1         0.6924674942E+00      0.1633335023E+01
          0                 2           2             4    7     1      -0.2421710550E-01       5    8    1        -0.1314221666E+01      0.3204519985E+01
          0                 3           2             4    7     1       0.1648629422E-02       5    8    1         0.9196876237E-01      0.2242465789E+00
          0                 4           1             4    7     1      -0.6560052317E-04       5    8    1        -0.3761533567E-02      0.9171492519E-02

    ------------------------------------------------
       NWT REQUIRED            4 OUTER ITERATIONS 
       AND A TOTAL OF          7 INNER ITERATIONS.
    ------------------------------------------------

 NO OUTPUT CONTROL FOR STRESS PERIOD   18   TIME STEP    9
 
 SOLVING FOR HEAD 
                                                   Max.-Head-Change                         Max.-Flux-Residual
  Residual-Control   Outer-Iter.   Inner-Iter.     Column Row Layer    Maximum-Head-Change  Column Row Layer    Maximum-Flux-Residual          L2-NORM 
          0                 1           2             5    8     1       0.1314069350E-01       5    8    1         0.7060103475E+00      0.1655396787E+01
          0                 2           2             4    7     1      -0.2423080795E-01       5    8    1        -0.1315575969E+01      0.3207217483E+01
          0                 3           2             4    7     1       0.1649562521E-02       5    8    1         0.9204740971E-01      0.2244241544E+00
          0                 4           1             4    7     1      -0.6563765217E-04       5    8    1        -0.3763183531E-02      0.9178499935E-02

    ------------------------------------------------
       NWT REQUIRED            4 OUTER ITERATIONS 
       AND A TOTAL OF          7 INNER ITERATIONS.
    ------------------------------------------------

 NO OUTPUT CONTROL FOR STRESS PERIOD   18   TIME STEP   10
 
 SOLVING FOR HEAD 
                                                   Max.-Head-Change                         Max.-Flux-Residual
  Residual-Control   Outer-Iter.   Inner-Iter.     Column Row Layer    Maximum-Head-Change  Column Row Layer    Maximum-Flux-Residual          L2-NORM 
          0                 1           2             5    8     1       0.1337658437E-01       5    8    1         0.7188907004E+00      0.1677609496E+01
          0                 2           2             4    7     1      -0.2424464108E-01       5    8    1        -0.1316864022E+01      0.3209834284E+01
          0                 3           2             4    7     1       0.1650504516E-02       5    8    1         0.9213808411E-01      0.2246072871E+00
          0                 4           1             4    7     1      -0.6567513507E-04       5    8    1        -0.3766941938E-02      0.9185895855E-02

    ------------------------------------------------
       NWT REQUIRED            4 OUTER ITERATIONS 
       AND A TOTAL OF          7 INNER ITERATIONS.
    ------------------------------------------------

 NO OUTPUT CONTROL FOR STRESS PERIOD   18   TIME STEP   11
 
 SOLVING FOR HEAD 
                                                   Max.-Head-Change                         Max.-Flux-Residual
  Residual-Control   Outer-Iter.   Inner-Iter.     Column Row Layer    Maximum-Head-Change  Column Row Layer    Maximum-Flux-Residual          L2-NORM 
          0                 1           2             5    8     1       0.1360132316E-01       5    8    1         0.7311523862E+00      0.1699792093E+01
          0                 2           2             4    7     1      -0.2425855101E-01       5    8    1        -0.1318090207E+01      0.3212372657E+01
          0                 3           2             4    7     1       0.1651451741E-02       5    8    1         0.9222439737E-01      0.2247828221E+00
          0                 4           1             4    7     1      -0.6571282577E-04       5    8    1        -0.3770519016E-02      0.9192941149E-02

    ------------------------------------------------
       NWT REQUIRED            4 OUTER ITERATIONS 
       AND A TOTAL OF          7 INNER ITERATIONS.
    ------------------------------------------------

 NO OUTPUT CONTROL FOR STRESS PERIOD   18   TIME STEP   12
 
 SOLVING FOR HEAD 
                                                   Max.-Head-Change                         Max.-Flux-Residual
  Residual-Control   Outer-Iter.   Inner-Iter.     Column Row Layer    Maximum-Head-Change  Column Row Layer    Maximum-Flux-Residual          L2-NORM 
          0                 1           2             5    8     1       0.1381548578E-01       5    8    1         0.7428279790E+00      0.1721811329E+01
          0                 2           2             4    7     1      -0.2427253954E-01       5    8    1        -0.1319257782E+01      0.3214834699E+01
          0                 3           2             4    7     1       0.1652404316E-02       5    8    1         0.9230657967E-01      0.2249551992E+00
          0                 4           1             4    7     1      -0.6575072958E-04       5    8    1        -0.3773924386E-02      0.9199912239E-02

    ------------------------------------------------
       NWT REQUIRED            4 OUTER ITERATIONS 
       AND A TOTAL OF          7 INNER ITERATIONS.
    ------------------------------------------------

 NO OUTPUT CONTROL FOR STRESS PERIOD   18   TIME STEP   13
 
 SOLVING FOR HEAD 
                                                   Max.-Head-Change                         Max.-Flux-Residual
  Residual-Control   Outer-Iter.   Inner-Iter.     Column Row Layer    Maximum-Head-Change  Column Row Layer    Maximum-Flux-Residual          L2-NORM 
          0                 1           2             5    8     1       0.1401975442E-01       5    8    1         0.7539552223E+00      0.1743587655E+01
          0                 2           2             4    7     1      -0.2428657019E-01       5    8    1        -0.1320370522E+01      0.3217224589E+01
          0                 3           2             4    7     1       0.1653359758E-02       5    8    1         0.9238489617E-01      0.2251225577E+00
          0                 4           1             4    7     1      -0.6578874748E-04       5    8    1        -0.3777168989E-02      0.9206682227E-02

    ------------------------------------------------
       NWT REQUIRED            4 OUTER ITERATIONS 
       AND A TOTAL OF          7 INNER ITERATIONS.
    ------------------------------------------------

 NO OUTPUT CONTROL FOR STRESS PERIOD   18   TIME STEP   14
 
 SOLVING FOR HEAD 
                                                   Max.-Head-Change                         Max.-Flux-Residual
  Residual-Control   Outer-Iter.   Inner-Iter.     Column Row Layer    Maximum-Head-Change  Column Row Layer    Maximum-Flux-Residual          L2-NORM 
          0                 1           2             5    8     1       0.1421489788E-01       5    8    1         0.7645773690E+00      0.1765046601E+01
          0                 2           2             4    7     1      -0.2430062147E-01       5    8    1        -0.1321432751E+01      0.3219544562E+01
          0                 3           2             4    7     1       0.1654316605E-02       5    8    1         0.9245965221E-01      0.2252850573E+00
          0                 4           1             4    7     1      -0.6582682132E-04       5    8    1        -0.3780265529E-02      0.9213271574E-02

    ------------------------------------------------
       NWT REQUIRED            4 OUTER ITERATIONS 
       AND A TOTAL OF          7 INNER ITERATIONS.
    ------------------------------------------------

 NO OUTPUT CONTROL FOR STRESS PERIOD   18   TIME STEP   15
 
 SOLVING FOR HEAD 
                                                   Max.-Head-Change                         Max.-Flux-Residual
  Residual-Control   Outer-Iter.   Inner-Iter.     Column Row Layer    Maximum-Head-Change  Column Row Layer    Maximum-Flux-Residual          L2-NORM 
          0                 1           2             5    8     1       0.1440120071E-01       5    8    1         0.7747106299E+00      0.1786133416E+01
          0                 2           2             4    7     1      -0.2431467402E-01       5    8    1        -0.1322446091E+01      0.3221796729E+01
          0                 3           2             4    7     1       0.1655273536E-02       5    8    1         0.9253096331E-01      0.2254428319E+00
          0                 4           1             4    7     1      -0.6586489840E-04       5    8    1        -0.3783218978E-02      0.9219664910E-02

    ------------------------------------------------
       NWT REQUIRED            4 OUTER ITERATIONS 
       AND A TOTAL OF          7 INNER ITERATIONS.
    ------------------------------------------------

 NO OUTPUT CONTROL FOR STRESS PERIOD   18   TIME STEP   16
 
 SOLVING FOR HEAD 
                                                   Max.-Head-Change                         Max.-Flux-Residual
  Residual-Control   Outer-Iter.   Inner-Iter.     Column Row Layer    Maximum-Head-Change  Column Row Layer    Maximum-Flux-Residual          L2-NORM 
          0                 1           2             5    8     1       0.1457935968E-01       5    8    1         0.7843934086E+00      0.1806815565E+01
          0                 2           2             4    7     1      -0.2432870926E-01       5    8    1        -0.1323414382E+01      0.3223983517E+01
          0                 3           2             4    7     1       0.1656229288E-02       5    8    1         0.9259909849E-01      0.2255960619E+00
          0                 4           1             4    7     1      -0.6590292884E-04       5    8    1        -0.3786040317E-02      0.9225899175E-02

    ------------------------------------------------
       NWT REQUIRED            4 OUTER ITERATIONS 
       AND A TOTAL OF          7 INNER ITERATIONS.
    ------------------------------------------------

 NO OUTPUT CONTROL FOR STRESS PERIOD   18   TIME STEP   17
 
 SOLVING FOR HEAD 
                                                   Max.-Head-Change                         Max.-Flux-Residual
  Residual-Control   Outer-Iter.   Inner-Iter.     Column Row Layer    Maximum-Head-Change  Column Row Layer    Maximum-Flux-Residual          L2-NORM 
          0                 1           2             5    8     1       0.1474972993E-01       5    8    1         0.7936460641E+00      0.1827074084E+01
          0                 2           2             4    7     1      -0.2434272460E-01       5    8    1        -0.1324339660E+01      0.3226108035E+01
          0                 3           2             4    7     1       0.1657183684E-02       5    8    1         0.9266420316E-01      0.2257449561E+00
          0                 4           1             4    7     1      -0.6594090518E-04       5    8    1        -0.3788735793E-02      0.9231951201E-02

    ------------------------------------------------
       NWT REQUIRED            4 OUTER ITERATIONS 
       AND A TOTAL OF          7 INNER ITERATIONS.
    ------------------------------------------------

 NO OUTPUT CONTROL FOR STRESS PERIOD   18   TIME STEP   18
 
 SOLVING FOR HEAD 
                                                   Max.-Head-Change                         Max.-Flux-Residual
  Residual-Control   Outer-Iter.   Inner-Iter.     Column Row Layer    Maximum-Head-Change  Column Row Layer    Maximum-Flux-Residual          L2-NORM 
          0                 1           2             5    8     1       0.1491307423E-01       5    8    1         0.8025106583E+00      0.1846895407E+01
          0                 2           2             4    7     1      -0.2435667738E-01       5    8    1        -0.1325226131E+01      0.3228172368E+01
          0                 3           2             4    7     1       0.1658133818E-02       5    8    1         0.9272657204E-01      0.2258896512E+00
          0                 4           1             4    7     1      -0.6597871216E-04       5    8    1        -0.3791317516E-02      0.9237843442E-02

    ------------------------------------------------
       NWT REQUIRED            4 OUTER ITERATIONS 
       AND A TOTAL OF          7 INNER ITERATIONS.
    ------------------------------------------------

 NO OUTPUT CONTROL FOR STRESS PERIOD   18   TIME STEP   19
 
 SOLVING FOR HEAD 
                                                   Max.-Head-Change                         Max.-Flux-Residual
  Residual-Control   Outer-Iter.   Inner-Iter.     Column Row Layer    Maximum-Head-Change  Column Row Layer    Maximum-Flux-Residual          L2-NORM 
          0                 1           2             5    8     1       0.1506938622E-01       5    8    1         0.8109873258E+00      0.1866268179E+01
          0                 2           2             4    7     1      -0.2437058051E-01       5    8    1        -0.1326073809E+01      0.3230178687E+01
          0                 3           2             4    7     1       0.1659080571E-02       5    8    1         0.9278620759E-01      0.2260302985E+00
          0                 4           1             4    7     1      -0.6601638398E-04       5    8    1        -0.3793785693E-02      0.9243572175E-02

    ------------------------------------------------
       NWT REQUIRED            4 OUTER ITERATIONS 
       AND A TOTAL OF          7 INNER ITERATIONS.
    ------------------------------------------------

 NO OUTPUT CONTROL FOR STRESS PERIOD   18   TIME STEP   20
 
 SOLVING FOR HEAD 
                                                   Max.-Head-Change                         Max.-Flux-Residual
  Residual-Control   Outer-Iter.   Inner-Iter.     Column Row Layer    Maximum-Head-Change  Column Row Layer    Maximum-Flux-Residual          L2-NORM 
          0                 1           2             5    8     1       0.1521936628E-01       5    8    1         0.8191151493E+00      0.1885191116E+01
          0                 2           2             4    7     1      -0.2438440783E-01       5    8    1        -0.1326886603E+01      0.3232129075E+01
          0                 3           2             4    7     1       0.1660022161E-02       5    8    1         0.9284338531E-01      0.2261670375E+00
          0                 4           1             4    7     1      -0.6605385065E-04       5    8    1        -0.3796151791E-02      0.9249145924E-02

    ------------------------------------------------
       NWT REQUIRED            4 OUTER ITERATIONS 
       AND A TOTAL OF          7 INNER ITERATIONS.
    ------------------------------------------------

 NO OUTPUT CONTROL FOR STRESS PERIOD   18   TIME STEP   21
 
 SOLVING FOR HEAD 
                                                   Max.-Head-Change                         Max.-Flux-Residual
  Residual-Control   Outer-Iter.   Inner-Iter.     Column Row Layer    Maximum-Head-Change  Column Row Layer    Maximum-Flux-Residual          L2-NORM 
          0                 1           2             5    8     1       0.1536325644E-01       5    8    1         0.8269067954E+00      0.1903674515E+01
          0                 2           2             4    7     1      -0.2439814809E-01       5    8    1        -0.1327665778E+01      0.3234026639E+01
          0                 3           2             4    7     1       0.1660957822E-02       5    8    1         0.9289819290E-01      0.2263000880E+00
          0                 4           1             4    7     1      -0.6609108165E-04       5    8    1        -0.3798419311E-02      0.9254571855E-02

    ------------------------------------------------
       NWT REQUIRED            4 OUTER ITERATIONS 
       AND A TOTAL OF          7 INNER ITERATIONS.
    ------------------------------------------------

 NO OUTPUT CONTROL FOR STRESS PERIOD   18   TIME STEP   22
 
 SOLVING FOR HEAD 
                                                   Max.-Head-Change                         Max.-Flux-Residual
  Residual-Control   Outer-Iter.   Inner-Iter.     Column Row Layer    Maximum-Head-Change  Column Row Layer    Maximum-Flux-Residual          L2-NORM 
          0                 1           2             5    8     1       0.1550154988E-01       5    8    1         0.8343905761E+00      0.1921719540E+01
          0                 2           2             4    7     1      -0.2441179101E-01       5    8    1        -0.1328414166E+01      0.3235872822E+01
          0                 3           2             4    7     1       0.1661886854E-02       5    8    1         0.9295083182E-01      0.2264295464E+00
          0                 4           1             4    7     1      -0.6612804878E-04       5    8    1        -0.3800596807E-02      0.9259854207E-02

    ------------------------------------------------
       NWT REQUIRED            4 OUTER ITERATIONS 
       AND A TOTAL OF          7 INNER ITERATIONS.
    ------------------------------------------------

 NO OUTPUT CONTROL FOR STRESS PERIOD   18   TIME STEP   23
 
 SOLVING FOR HEAD 
                                                   Max.-Head-Change                         Max.-Flux-Residual
  Residual-Control   Outer-Iter.   Inner-Iter.     Column Row Layer    Maximum-Head-Change  Column Row Layer    Maximum-Flux-Residual          L2-NORM 
          0                 1           2             5    8     1       0.1563428279E-01       5    8    1         0.8415684159E+00      0.1939310797E+01
          0                 2           2             4    7     1      -0.2442532629E-01       5    8    1        -0.1329131959E+01      0.3237667474E+01
          0                 3           2             4    7     1       0.1662808555E-02       5    8    1         0.9300131492E-01      0.2265553967E+00
          0                 4           1             4    7     1      -0.6616472382E-04       5    8    1        -0.3802684750E-02      0.9264991630E-02

    ------------------------------------------------
       NWT REQUIRED            4 OUTER ITERATIONS 
       AND A TOTAL OF          7 INNER ITERATIONS.
    ------------------------------------------------

 NO OUTPUT CONTROL FOR STRESS PERIOD   18   TIME STEP   24
 
 SOLVING FOR HEAD 
                                                   Max.-Head-Change                         Max.-Flux-Residual
  Residual-Control   Outer-Iter.   Inner-Iter.     Column Row Layer    Maximum-Head-Change  Column Row Layer    Maximum-Flux-Residual          L2-NORM 
          0                 1           2             5    8     1       0.1576191771E-01       5    8    1         0.8484658373E+00      0.1956473774E+01
          0                 2           2             4    7     1      -0.2443874604E-01       5    8    1        -0.1329821710E+01      0.3239414365E+01
          0                 3           2             4    7     1       0.1663722388E-02       5    8    1         0.9304982232E-01      0.2266779075E+00
          0                 4           1             4    7     1      -0.6620108573E-04       5    8    1        -0.3804690645E-02      0.9269996623E-02

    ------------------------------------------------
       NWT REQUIRED            4 OUTER ITERATIONS 
       AND A TOTAL OF          7 INNER ITERATIONS.
    ------------------------------------------------

 NO OUTPUT CONTROL FOR STRESS PERIOD   18   TIME STEP   25
 
 SOLVING FOR HEAD 
                                                   Max.-Head-Change                         Max.-Flux-Residual
  Residual-Control   Outer-Iter.   Inner-Iter.     Column Row Layer    Maximum-Head-Change  Column Row Layer    Maximum-Flux-Residual          L2-NORM 
          0                 1           2             5    8     1       0.1588474438E-01       5    8    1         0.8550989405E+00      0.1973226686E+01
          0                 2           2             4    7     1      -0.2445205585E-01       5    8    1        -0.1330485029E+01      0.3241116024E+01
          0                 3           2             4    7     1       0.1664628735E-02       5    8    1         0.9309646711E-01      0.2267972492E+00
          0                 4           1             4    7     1      -0.6623715083E-04       5    8    1        -0.3806619141E-02      0.9274873479E-02

    ------------------------------------------------
       NWT REQUIRED            4 OUTER ITERATIONS 
       AND A TOTAL OF          7 INNER ITERATIONS.
    ------------------------------------------------

 NO OUTPUT CONTROL FOR STRESS PERIOD   18   TIME STEP   26
 
 SOLVING FOR HEAD 
                                                   Max.-Head-Change                         Max.-Flux-Residual
  Residual-Control   Outer-Iter.   Inner-Iter.     Column Row Layer    Maximum-Head-Change  Column Row Layer    Maximum-Flux-Residual          L2-NORM 
          0                 1           2             5    8     1       0.1600317348E-01       5    8    1         0.8614906282E+00      0.1989572480E+01
          0                 2           2             4    7     1      -0.2446522212E-01       5    8    1        -0.1331124206E+01      0.3242773277E+01
          0                 3           2             4    7     1       0.1665525307E-02       5    8    1         0.9314141080E-01      0.2269134849E+00
          0                 4           1             4    7     1      -0.6627282634E-04       5    8    1        -0.3808476959E-02      0.9279626205E-02

    ------------------------------------------------
       NWT REQUIRED            4 OUTER ITERATIONS 
       AND A TOTAL OF          7 INNER ITERATIONS.
    ------------------------------------------------

 NO OUTPUT CONTROL FOR STRESS PERIOD   18   TIME STEP   27
 
 SOLVING FOR HEAD 
                                                   Max.-Head-Change                         Max.-Flux-Residual
  Residual-Control   Outer-Iter.   Inner-Iter.     Column Row Layer    Maximum-Head-Change  Column Row Layer    Maximum-Flux-Residual          L2-NORM 
          0                 1           2             5    8     1       0.1611702266E-01       5    8    1         0.8676306679E+00      0.2005511955E+01
          0                 2           2             4    7     1      -0.2447825265E-01       5    8    1        -0.1331738218E+01      0.3244387089E+01
          0                 3           2             4    7     1       0.1666412634E-02       5    8    1         0.9318458171E-01      0.2270266744E+00
          0                 4           1             4    7     1      -0.6630813356E-04       5    8    1        -0.3810261212E-02      0.9284255588E-02

    ------------------------------------------------
       NWT REQUIRED            4 OUTER ITERATIONS 
       AND A TOTAL OF          7 INNER ITERATIONS.
    ------------------------------------------------

 NO OUTPUT CONTROL FOR STRESS PERIOD   18   TIME STEP   28
 
 SOLVING FOR HEAD 
                                                   Max.-Head-Change                         Max.-Flux-Residual
  Residual-Control   Outer-Iter.   Inner-Iter.     Column Row Layer    Maximum-Head-Change  Column Row Layer    Maximum-Flux-Residual          L2-NORM 
          0                 1           2             5    8     1       0.1622697148E-01       5    8    1         0.8735568943E+00      0.2021064723E+01
          0                 2           2             4    7     1      -0.2449115528E-01       5    8    1        -0.1332330848E+01      0.3245959700E+01
          0                 3           2             4    7     1       0.1667291253E-02       5    8    1         0.9322624602E-01      0.2271369799E+00
          0                 4           1             4    7     1      -0.6634309493E-04       5    8    1        -0.3811982880E-02      0.9288767789E-02

    ------------------------------------------------
       NWT REQUIRED            4 OUTER ITERATIONS 
       AND A TOTAL OF          7 INNER ITERATIONS.
    ------------------------------------------------

 NO OUTPUT CONTROL FOR STRESS PERIOD   18   TIME STEP   29
 
 SOLVING FOR HEAD 
                                                   Max.-Head-Change                         Max.-Flux-Residual
  Residual-Control   Outer-Iter.   Inner-Iter.     Column Row Layer    Maximum-Head-Change  Column Row Layer    Maximum-Flux-Residual          L2-NORM 
          0                 1           2             5    8     1       0.1633294359E-01       5    8    1         0.8792651329E+00      0.2036236341E+01
          0                 2           2             4    7     1      -0.2450389830E-01       5    8    1        -0.1332901679E+01      0.3247492133E+01
          0                 3           2             4    7     1       0.1668159001E-02       5    8    1         0.9326637508E-01      0.2272434198E+00
          0                 4           1             4    7     1      -0.6637762354E-04       5    8    1        -0.3813640818E-02      0.9293060200E-02

    ------------------------------------------------
       NWT REQUIRED            4 OUTER ITERATIONS 
       AND A TOTAL OF          7 INNER ITERATIONS.
    ------------------------------------------------

 NO OUTPUT CONTROL FOR STRESS PERIOD   18   TIME STEP   30



 STREAM LISTING     PERIOD     18   STEP       30

 LAYER ROW COL. STREAM  RCH.  FLOW INTO     FLOW TO   FLOW OUT OF   OVRLND.     DIRECT     STREAM       STREAM     STREAM     STREAM   STREAMBED  STREAMBED
                SEG.NO.  NO.  STRM. RCH.    AQUIFER    STRM. RCH.    RUNOFF     PRECIP       ET          HEAD       DEPTH      WIDTH   CONDCTNC.   GRADIENT

   1    1    1     1     1    6.3001E+01  3.8237E-01   6.2619E+01  0.000E+00  0.000E+00  0.000E+00  1.09461E+03  1.562E+00  1.863E+01  8.382E-02  1.521E+00
   1    2    2     1     2    6.2619E+01  5.9218E-01   6.2026E+01  0.000E+00  0.000E+00  0.000E+00  1.08961E+03  1.556E+00  1.857E+01  1.300E-01  1.519E+00
   1    3    3     1     3    6.2026E+01  5.0506E-01   6.1521E+01  0.000E+00  0.000E+00  0.000E+00  1.08397E+03  1.549E+00  1.850E+01  1.110E-01  1.516E+00
   1    3    4     1     4    6.1521E+01  4.6511E-01   6.1056E+01  0.000E+00  0.000E+00  0.000E+00  1.07895E+03  1.543E+00  1.845E+01  1.024E-01  1.514E+00
   1    4    5     2     1    5.9056E+01  3.9145E-01   5.8665E+01  0.000E+00  0.000E+00  0.000E+00  1.07395E+03  2.019E+00  1.200E+01  7.800E-02  1.673E+00
   1    5    6     2     2    5.8665E+01  3.0069E-01   5.8364E+01  0.000E+00  0.000E+00  0.000E+00  1.06852E+03  2.011E+00  1.200E+01  6.000E-02  1.670E+00
   1    6    6     2     3    5.8364E+01  3.0031E-01   5.8064E+01  0.000E+00  0.000E+00  0.000E+00  1.06380E+03  2.005E+00  1.200E+01  6.000E-02  1.668E+00
   1    7    6     2     4    5.8064E+01  2.9994E-01   5.7764E+01  0.000E+00  0.000E+00  0.000E+00  1.05907E+03  1.999E+00  1.200E+01  6.000E-02  1.666E+00
   1    8    6     2     5    5.7764E+01  2.9957E-01   5.7464E+01  0.000E+00  0.000E+00  0.000E+00  1.05435E+03  1.993E+00  1.200E+01  6.000E-02  1.664E+00
   1    3    5     3     1    2.0000E+00  2.8252E-01   1.7175E+00  0.000E+00  0.000E+00  0.000E+00  1.07555E+03  1.909E+00  9.636E+00  7.227E-02  1.955E+00
   1    3    6     3     2    1.7175E+00  2.4905E-01   1.4684E+00  0.000E+00  0.000E+00  0.000E+00  1.07264E+03  1.727E+00  8.909E+00  6.682E-02  1.864E+00
   1    3    7     3     3    1.4684E+00  1.9718E-01   1.2712E+00  0.000E+00  0.000E+00  0.000E+00  1.06987E+03  1.555E+00  8.218E+00  5.547E-02  1.777E+00
   1    4    8     3     4    1.2712E+00  2.2567E-01   1.0456E+00  0.000E+00  0.000E+00  0.000E+00  1.06682E+03  1.364E+00  7.455E+00  6.709E-02  1.682E+00
   1    5    8     3     5    1.0456E+00  1.5790E-01   8.8768E-01  0.000E+00  0.000E+00  0.000E+00  1.06362E+03  1.164E+00  6.655E+00  4.991E-02  1.582E+00
   1    6    8     3     6    8.8768E-01  5.5980E-02   8.3170E-01  0.000E+00  0.000E+00  0.000E+00  1.06158E+03  1.036E+00  6.145E+00  1.844E-02  1.518E+00
   1    5   10     4     1    1.0000E+01  9.0919E-02   9.9091E+00  0.000E+00  0.000E+00  0.000E+00  1.07836E+03  6.368E-01  1.000E+01  2.500E-02  1.212E+00
   1    5    9     4     2    9.9091E+00  1.8158E-01   9.7275E+00  0.000E+00  0.000E+00  0.000E+00  1.07154E+03  6.315E-01  1.000E+01  5.000E-02  1.211E+00
   1    6    8     4     3    9.7275E+00  1.2689E-01   9.6006E+00  0.000E+00  0.000E+00  0.000E+00  1.06381E+03  6.256E-01  1.000E+01  3.500E-02  1.209E+00
   1    6    8     5     1    1.0432E+01  2.2686E-01   1.0205E+01  0.000E+00  0.000E+00  0.000E+00  1.05868E+03  6.790E-01  1.542E+01  6.166E-02  1.226E+00
   1    7    7     5     2    1.0205E+01  2.7894E-01   9.9265E+00  0.000E+00  0.000E+00  0.000E+00  1.05417E+03  6.732E-01  1.519E+01  7.594E-02  1.224E+00
   1    8    7     5     3    9.9265E+00  1.9221E-01   9.7343E+00  0.000E+00  0.000E+00  0.000E+00  1.04992E+03  6.676E-01  1.497E+01  5.241E-02  1.223E+00
   1    8    6     5     4    9.7343E+00  1.3577E-01   9.5985E+00  0.000E+00  0.000E+00  0.000E+00  1.04691E+03  6.637E-01  1.482E+01  3.706E-02  1.221E+00
   1    9    6     6     1    6.7063E+01  3.1225E-01   6.6751E+01  0.000E+00  0.000E+00  0.000E+00  1.04493E+03  2.204E+00  1.200E+01  6.000E-02  1.735E+00
   1   10    7     6     2    6.6751E+01  3.1188E-01   6.6439E+01  0.000E+00  0.000E+00  0.000E+00  1.04038E+03  2.198E+00  1.200E+01  6.000E-02  1.733E+00
   1   11    7     6     3    6.6439E+01  3.1151E-01   6.6127E+01  0.000E+00  0.000E+00  0.000E+00  1.03583E+03  2.192E+00  1.200E+01  6.000E-02  1.731E+00
   1   12    7     6     4    6.6127E+01  3.1114E-01   6.5816E+01  0.000E+00  0.000E+00  0.000E+00  1.03128E+03  2.186E+00  1.200E+01  6.000E-02  1.729E+00
   1   13    7     6     5    6.5816E+01  2.3792E-02   6.5792E+01  0.000E+00  0.000E+00  0.000E+00  1.02809E+03  2.182E+00  1.200E+01  2.400E-02  3.304E-01
   1   14    9     7     1    1.5000E+02  1.3313E+00   1.4867E+02  0.000E+00  0.000E+00  0.000E+00  1.03987E+03  2.288E+00  5.529E+01  5.593E-01  7.934E-01
   1   13    8     7     2    1.4867E+02  1.8251E+00   1.4684E+02  0.000E+00  0.000E+00  0.000E+00  1.03478E+03  2.279E+00  5.526E+01  6.148E-01  9.896E-01
   1   13    7     7     3    1.4684E+02  1.4463E+00   1.4540E+02  0.000E+00  0.000E+00  0.000E+00  1.02969E+03  2.271E+00  5.522E+01  5.585E-01  8.633E-01
   1   13    6     8     1    2.1119E+02  1.0640E+00   2.1013E+02  0.000E+00  0.000E+00  0.000E+00  1.02507E+03  3.199E+00  4.639E+01  4.727E-01  7.502E-01
   1   13    5     8     2    2.1013E+02  2.5599E-01   2.0987E+02  0.000E+00  0.000E+00  0.000E+00  1.01882E+03  3.196E+00  4.634E+01  4.722E-01  1.807E-01
   1   13    4     8     3    2.0987E+02 -2.1872E+00   2.1206E+02  0.000E+00  0.000E+00  0.000E+00  1.01258E+03  3.201E+00  4.642E+01  4.730E+00 -1.541E-01
   1   13    3     8     4    2.1206E+02 -3.4520E+00   2.1551E+02  0.000E+00  0.000E+00  0.000E+00  1.00634E+03  3.217E+00  4.665E+01  4.754E+00 -2.421E-01
   1   13    2     8     5    2.1551E+02 -2.5487E+00   2.1806E+02  0.000E+00  0.000E+00  0.000E+00  1.00011E+03  3.234E+00  4.689E+01  4.779E+00 -1.778E-01
   1   13    1     8     6    2.1806E+02 -2.0012E+00   2.2006E+02  0.000E+00  0.000E+00  0.000E+00  9.95122E+02  3.247E+00  4.708E+01  2.878E+00 -2.318E-01





UNSATURATED ZONE PACKAGE VOLUMETRIC BUDGET FOR  TIME STEP    30 STRESS PERIOD   18
  ------------------------------------------------------------------------------



     CUMULATIVE VOLUMES      L**3       RATES FOR THIS TIME STEP      L**3/T
     ------------------                 ------------------------

           IN:                                      IN:
           ---                                      ---
        INFILTRATION =   543239523.9831          INFILTRATION =           8.3175

          OUT:                                     OUT:
          ----                                     ----
              UZF ET =   471142905.5165                UZF ET =           8.3175
        UZF RECHARGE =    72024631.8946          UZF RECHARGE =       0.0000E+00

            IN - OUT =       71986.5720              IN - OUT =       0.0000E+00

          STORAGE:                                 STORAGE:
          --------                                 --------
      STORAGE CHANGE =       71980.5290        STORAGE CHANGE =      -2.0085E-13

 PERCENT DISCREPANCY IS DIFFERENCE BETWEEN IN-OUT MINUS CHANGE IN STORAGE
 DIVIDED BY THE AVERAGE OF IN AND OUT TIMES 100

 PERCENT DISCREPANCY =           0.00     PERCENT DISCREPANCY =           0.00






1
  VOLUMETRIC BUDGET FOR AGRICULTURAL FIELDS AT  END OF TIME STEP   30, STRESS PERIOD  18
  ------------------------------------------------------------------------------

     CUMULATIVE VOLUMES      L**3       RATES FOR THIS TIME STEP      L**3/T
     ------------------                 ------------------------

           IN:                                      IN:
           ---                                      ---
           AG WELLS      =   505274144.0000             AG WELLS      =           7.4700
      DIVERSION SEGMENTS =           0.0000        DIVERSION SEGMENTS =           0.0000
           GW IRRIGATION =           0.0000             GW IRRIGATION =           0.0000
           SW IRRIGATION =           0.0000             SW IRRIGATION =           0.0000
        SYSTEM LOSSES GW =           0.0000          SYSTEM LOSSES GW =           0.0000
        SYSTEM LOSSES SW =           0.0000          SYSTEM LOSSES SW =           0.0000

                TOTAL IN =   505274144.0000                  TOTAL IN =           7.4700

          OUT:                                     OUT:
          ----                                     ----
           AG WELLS      =           0.0000             AG WELLS      =           0.0000
      DIVERSION SEGMENTS =           0.0000        DIVERSION SEGMENTS =           0.0000
           GW IRRIGATION =   505274144.0000             GW IRRIGATION =           7.4700
           SW IRRIGATION =           0.0000             SW IRRIGATION =           0.0000
        SYSTEM LOSSES GW =           0.0000          SYSTEM LOSSES GW =           0.0000
        SYSTEM LOSSES SW =           0.0000          SYSTEM LOSSES SW =           0.0000

               TOTAL OUT =   505274144.0000                 TOTAL OUT =           7.4700

                IN - OUT =           0.0000                  IN - OUT =           0.0000

     PERCENT DISCREPANCY =           0.00         PERCENT DISCREPANCY =           0.00



1
  VOLUMETRIC BUDGET FOR ENTIRE MODEL AT END OF TIME STEP   30, STRESS PERIOD  18
  ------------------------------------------------------------------------------

     CUMULATIVE VOLUMES      L**3       RATES FOR THIS TIME STEP      L**3/T
     ------------------                 ------------------------

           IN:                                      IN:
           ---                                      ---
             STORAGE     =   658898304.0000               STORAGE     =           5.4643
       CONSTANT HEAD     =           0.0000         CONSTANT HEAD     =           0.0000
     HEAD DEP BOUNDS     =    12785457.0000       HEAD DEP BOUNDS     =           0.2855
      STREAM LEAKAGE     =   562124800.0000        STREAM LEAKAGE     =          13.1314
        UZF RECHARGE     =    72024584.0000          UZF RECHARGE     =           0.0000
               GW ET     =           0.0000                 GW ET     =           0.0000
     SURFACE LEAKAGE     =           0.0000       SURFACE LEAKAGE     =           0.0000
           AG WELLS      =           0.0000             AG WELLS      =           0.0000

                TOTAL IN =  1305833216.0000                  TOTAL IN =          18.8812

          OUT:                                     OUT:
          ----                                     ----
             STORAGE     =   310561216.0000               STORAGE     =           0.6586
       CONSTANT HEAD     =           0.0000         CONSTANT HEAD     =           0.0000
     HEAD DEP BOUNDS     =    13199234.0000       HEAD DEP BOUNDS     =           0.2970
      STREAM LEAKAGE     =   461431264.0000        STREAM LEAKAGE     =          10.1891
        UZF RECHARGE     =           0.0000          UZF RECHARGE     =           0.0000
               GW ET     =    15368230.0000                 GW ET     =           0.2661
     SURFACE LEAKAGE     =           0.0000       SURFACE LEAKAGE     =           0.0000
           AG WELLS      =   505274144.0000             AG WELLS      =           7.4700

               TOTAL OUT =  1305834112.0000                 TOTAL OUT =          18.8809

                IN - OUT =        -896.0000                  IN - OUT =       3.0518E-04

     PERCENT DISCREPANCY =          -0.00         PERCENT DISCREPANCY =           0.00






         TIME SUMMARY AT END OF TIME STEP   30 IN STRESS PERIOD   18
                    SECONDS     MINUTES      HOURS       DAYS        YEARS
                    -----------------------------------------------------------
   TIME STEP LENGTH  87667.      1461.1      24.352      1.0147     2.77799E-03
 STRESS PERIOD TIME 2.63000E+06  43833.      730.56      30.440     8.33397E-02
         TOTAL TIME 4.47965E+07 7.46608E+05  12443.      518.48      1.4195    
1
1
                            STRESS PERIOD NO.   19, LENGTH =   2630000.    
                            -----------------------------------------------

                              NUMBER OF TIME STEPS =    30

                               MULTIPLIER FOR DELT =     1.000

                            INITIAL TIME STEP SIZE =   87666.66    

 REUSING NON-PARAMETER GHB CELLS FROM LAST STRESS PERIOD

      2 GHB CELLS

 REUSING STREAM SEGMENT DATA FROM LAST STRESS PERIOD



            AREAL INFILTRATION RATE
 READING ON UNIT   19 WITH FORMAT: (FREE)              

            1           2           3           4           5           6           7           8           9          10
 ........................................................................................................................
   1   1.0000E-10  2.0000E-10   0.000       0.000       0.000       0.000       0.000       0.000       0.000       0.000    
   2   2.0000E-10  1.0000E-10  2.0000E-10   0.000       0.000      8.0000E-10  8.0000E-10  5.0000E-10   0.000       0.000    
   3    0.000      5.0000E-10  1.0000E-10  1.0000E-10  8.0000E-10  8.0000E-10  5.0000E-10  5.0000E-10   0.000       0.000    
   4   8.0000E-10  5.0000E-10  1.0000E-10  1.0000E-10  1.0000E-10  1.0000E-10  1.0000E-10  1.0000E-10  2.0000E-10   0.000    
   5   8.0000E-10  5.0000E-10  1.0000E-10  1.0000E-10  1.0000E-10  1.0000E-10  1.0000E-10  1.0000E-10  1.0000E-10  1.0000E-10
   6   8.0000E-10  5.0000E-10  5.0000E-10  2.0000E-10  2.0000E-10  1.0000E-10  1.0000E-10  1.0000E-10  1.0000E-10  5.0000E-10
   7   8.0000E-10  5.0000E-10  5.0000E-10  2.0000E-10  2.0000E-10  1.0000E-10  1.0000E-10  2.0000E-10  2.0000E-10   0.000    
   8    0.000      5.0000E-10  5.0000E-10  2.0000E-10  2.0000E-10  1.0000E-10  1.0000E-10  2.0000E-10  5.0000E-10   0.000    
   9    0.000      5.0000E-10  5.0000E-10  2.0000E-10  2.0000E-10  1.0000E-10  1.0000E-10  2.0000E-10  5.0000E-10   0.000    
  10    0.000      5.0000E-10  5.0000E-10  2.0000E-10  2.0000E-10  1.0000E-10  1.0000E-10  2.0000E-10  5.0000E-10  8.0000E-10
  11    0.000      1.0000E-10  1.0000E-10  1.0000E-10  1.0000E-10  1.0000E-10  1.0000E-10  2.0000E-10  5.0000E-10   0.000    
  12   1.0000E-10  1.0000E-10  1.0000E-10  1.0000E-10  1.0000E-10  1.0000E-10  1.0000E-10  1.0000E-10  2.0000E-10   0.000    
  13   1.0000E-10  1.0000E-10  2.0000E-10  2.0000E-10  2.0000E-10  2.0000E-10  2.0000E-10  1.0000E-10  1.0000E-10   0.000    
  14    0.000      2.0000E-10  5.0000E-10  5.0000E-10  5.0000E-10  5.0000E-10  5.0000E-10  2.0000E-10  1.0000E-10   0.000    
  15    0.000       0.000      8.0000E-10  8.0000E-10  8.0000E-10  8.0000E-10   0.000       0.000       0.000       0.000    

                  ET RATE =  1.500000E-07

 USING ET EXTINCTION DEPTH FROM PREVIOUS STRESS PERIOD. CURRENT PERIOD IS:      19

 USING EXTINCTION WATER CONTENT FROM PREVIOUS STRESS PERIOD. CURRENT PERIOD IS:      19

 USING AIR ENTRY PRESSURE FROM PREVIOUS STRESS PERIOD. CURRENT PERIOD IS:      19

 USING ROOT PRESSURE HEAD FROM PREVIOUS STRESS PERIOD. CURRENT PERIOD IS:      19

 USING ROOT ACTIVITY FROM PREVIOUS STRESS PERIOD. CURRENT PERIOD IS:      19

 PROCESSING AG STRESS PERIOD DATA

 READING AG STRESS PERIOD DATA

 READING IRRIGATION WELL

 END PROCESSING AG STRESS PERIOD DATA OPTIONS
 
 SOLVING FOR HEAD 
                                                   Max.-Head-Change                         Max.-Flux-Residual
  Residual-Control   Outer-Iter.   Inner-Iter.     Column Row Layer    Maximum-Head-Change  Column Row Layer    Maximum-Flux-Residual          L2-NORM 
          0                 1           2             4    7     1      -0.5823823633E-01       4    7    1        -0.3044796274E+01      0.7233500807E+01
          0                 2           2             4    7     1       0.5664959294E-02       4    7    1         0.3044775715E+00      0.7232500477E+00
          0                 3           2             4    7     1      -0.3857673273E-03       4    7    1        -0.2131369483E-01      0.5061967137E-01
          0                 4           1             4    7     1       0.1534583782E-04       4    7    1         0.8714928415E-03      0.2069158700E-02

    ------------------------------------------------
       NWT REQUIRED            4 OUTER ITERATIONS 
       AND A TOTAL OF          7 INNER ITERATIONS.
    ------------------------------------------------

 OUTPUT CONTROL FOR STRESS PERIOD   19   TIME STEP    1
    PRINT BUDGET
    SAVE BUDGET
 UBDSV1 SAVING "         STORAGE" ON UNIT 102 AT TIME STEP 1, STRESS PERIOD 19
 UBDSV2 SAVING "   CONSTANT HEAD" ON UNIT 102 AT TIME STEP 1, STRESS PERIOD 19
 UBDSV1 SAVING "FLOW RIGHT FACE " ON UNIT 102 AT TIME STEP 1, STRESS PERIOD 19
 UBDSV1 SAVING "FLOW FRONT FACE " ON UNIT 102 AT TIME STEP 1, STRESS PERIOD 19

  HEAD DEP BOUNDS   PERIOD   19   STEP     1
 BOUNDARY      1   LAYER   1   ROW    13   COL     1   RATE   -0.296985    
 BOUNDARY      2   LAYER   1   ROW    14   COL     9   RATE    0.285452    



 STREAM LISTING     PERIOD     19   STEP        1

 LAYER ROW COL. STREAM  RCH.  FLOW INTO     FLOW TO   FLOW OUT OF   OVRLND.     DIRECT     STREAM       STREAM     STREAM     STREAM   STREAMBED  STREAMBED
                SEG.NO.  NO.  STRM. RCH.    AQUIFER    STRM. RCH.    RUNOFF     PRECIP       ET          HEAD       DEPTH      WIDTH   CONDCTNC.   GRADIENT

   1    1    1     1     1    5.8202E+01  3.6567E-01   5.7837E+01  0.000E+00  0.000E+00  0.000E+00  1.09455E+03  1.503E+00  1.804E+01  8.120E-02  1.501E+00
   1    2    2     1     2    5.7837E+01  5.6626E-01   5.7270E+01  0.000E+00  0.000E+00  0.000E+00  1.08956E+03  1.498E+00  1.799E+01  1.259E-01  1.499E+00
   1    3    3     1     3    5.7270E+01  4.8288E-01   5.6788E+01  0.000E+00  0.000E+00  0.000E+00  1.08391E+03  1.491E+00  1.792E+01  1.075E-01  1.497E+00
   1    3    4     1     4    5.6788E+01  4.4463E-01   5.6343E+01  0.000E+00  0.000E+00  0.000E+00  1.07889E+03  1.485E+00  1.786E+01  9.913E-02  1.495E+00
   1    4    5     2     1    5.4343E+01  3.8376E-01   5.3959E+01  0.000E+00  0.000E+00  0.000E+00  1.07385E+03  1.920E+00  1.200E+01  7.800E-02  1.640E+00
   1    5    6     2     2    5.3959E+01  2.9477E-01   5.3664E+01  0.000E+00  0.000E+00  0.000E+00  1.06842E+03  1.913E+00  1.200E+01  6.000E-02  1.638E+00
   1    6    6     2     3    5.3664E+01  2.9439E-01   5.3370E+01  0.000E+00  0.000E+00  0.000E+00  1.06370E+03  1.907E+00  1.200E+01  6.000E-02  1.636E+00
   1    7    6     2     4    5.3370E+01  2.9401E-01   5.3076E+01  0.000E+00  0.000E+00  0.000E+00  1.05898E+03  1.900E+00  1.200E+01  6.000E-02  1.633E+00
   1    8    6     2     5    5.3076E+01  2.9364E-01   5.2782E+01  0.000E+00  0.000E+00  0.000E+00  1.05425E+03  1.894E+00  1.200E+01  6.000E-02  1.631E+00
   1    3    5     3     1    2.0000E+00  2.8252E-01   1.7175E+00  0.000E+00  0.000E+00  0.000E+00  1.07555E+03  1.909E+00  9.636E+00  7.227E-02  1.955E+00
   1    3    6     3     2    1.7175E+00  2.4905E-01   1.4684E+00  0.000E+00  0.000E+00  0.000E+00  1.07264E+03  1.727E+00  8.909E+00  6.682E-02  1.864E+00
   1    3    7     3     3    1.4684E+00  1.9718E-01   1.2712E+00  0.000E+00  0.000E+00  0.000E+00  1.06987E+03  1.555E+00  8.218E+00  5.547E-02  1.777E+00
   1    4    8     3     4    1.2712E+00  2.2567E-01   1.0456E+00  0.000E+00  0.000E+00  0.000E+00  1.06682E+03  1.364E+00  7.455E+00  6.709E-02  1.682E+00
   1    5    8     3     5    1.0456E+00  1.5790E-01   8.8768E-01  0.000E+00  0.000E+00  0.000E+00  1.06362E+03  1.164E+00  6.655E+00  4.991E-02  1.582E+00
   1    6    8     3     6    8.8768E-01  5.5980E-02   8.3170E-01  0.000E+00  0.000E+00  0.000E+00  1.06158E+03  1.036E+00  6.145E+00  1.844E-02  1.518E+00
   1    5   10     4     1    1.0000E+01  9.0919E-02   9.9091E+00  0.000E+00  0.000E+00  0.000E+00  1.07836E+03  6.368E-01  1.000E+01  2.500E-02  1.212E+00
   1    5    9     4     2    9.9091E+00  1.8158E-01   9.7275E+00  0.000E+00  0.000E+00  0.000E+00  1.07154E+03  6.315E-01  1.000E+01  5.000E-02  1.211E+00
   1    6    8     4     3    9.7275E+00  1.2689E-01   9.6006E+00  0.000E+00  0.000E+00  0.000E+00  1.06381E+03  6.256E-01  1.000E+01  3.500E-02  1.209E+00
   1    6    8     5     1    1.0432E+01  2.2686E-01   1.0205E+01  0.000E+00  0.000E+00  0.000E+00  1.05868E+03  6.790E-01  1.542E+01  6.166E-02  1.226E+00
   1    7    7     5     2    1.0205E+01  2.7894E-01   9.9265E+00  0.000E+00  0.000E+00  0.000E+00  1.05417E+03  6.732E-01  1.519E+01  7.594E-02  1.224E+00
   1    8    7     5     3    9.9265E+00  1.9221E-01   9.7343E+00  0.000E+00  0.000E+00  0.000E+00  1.04992E+03  6.676E-01  1.497E+01  5.241E-02  1.223E+00
   1    8    6     5     4    9.7343E+00  1.3577E-01   9.5985E+00  0.000E+00  0.000E+00  0.000E+00  1.04691E+03  6.637E-01  1.482E+01  3.706E-02  1.221E+00
   1    9    6     6     1    6.2381E+01  3.0662E-01   6.2074E+01  0.000E+00  0.000E+00  0.000E+00  1.04484E+03  2.110E+00  1.200E+01  6.000E-02  1.703E+00
   1   10    7     6     2    6.2074E+01  3.0625E-01   6.1768E+01  0.000E+00  0.000E+00  0.000E+00  1.04029E+03  2.104E+00  1.200E+01  6.000E-02  1.701E+00
   1   11    7     6     3    6.1768E+01  3.0587E-01   6.1462E+01  0.000E+00  0.000E+00  0.000E+00  1.03573E+03  2.098E+00  1.200E+01  6.000E-02  1.699E+00
   1   12    7     6     4    6.1462E+01  3.0550E-01   6.1157E+01  0.000E+00  0.000E+00  0.000E+00  1.03118E+03  2.092E+00  1.200E+01  6.000E-02  1.697E+00
   1   13    7     6     5    6.1157E+01  2.1543E-02   6.1135E+01  0.000E+00  0.000E+00  0.000E+00  1.02800E+03  2.088E+00  1.200E+01  2.400E-02  2.992E-01
   1   14    9     7     1    1.5000E+02  1.3313E+00   1.4867E+02  0.000E+00  0.000E+00  0.000E+00  1.03987E+03  2.288E+00  5.529E+01  5.593E-01  7.934E-01
   1   13    8     7     2    1.4867E+02  1.8252E+00   1.4684E+02  0.000E+00  0.000E+00  0.000E+00  1.03478E+03  2.279E+00  5.526E+01  6.148E-01  9.896E-01
   1   13    7     7     3    1.4684E+02  1.4465E+00   1.4540E+02  0.000E+00  0.000E+00  0.000E+00  1.02969E+03  2.271E+00  5.522E+01  5.585E-01  8.634E-01
   1   13    6     8     1    2.0653E+02  1.0430E+00   2.0549E+02  0.000E+00  0.000E+00  0.000E+00  1.02505E+03  3.173E+00  4.600E+01  4.688E-01  7.416E-01
   1   13    5     8     2    2.0549E+02  2.4176E-01   2.0525E+02  0.000E+00  0.000E+00  0.000E+00  1.01879E+03  3.169E+00  4.595E+01  4.683E-01  1.721E-01
   1   13    4     8     3    2.0525E+02 -2.2720E+00   2.0752E+02  0.000E+00  0.000E+00  0.000E+00  1.01255E+03  3.175E+00  4.604E+01  4.691E+00 -1.614E-01
   1   13    3     8     4    2.0752E+02 -3.5155E+00   2.1103E+02  0.000E+00  0.000E+00  0.000E+00  1.00632E+03  3.192E+00  4.628E+01  4.716E+00 -2.485E-01
   1   13    2     8     5    2.1103E+02 -2.6378E+00   2.1367E+02  0.000E+00  0.000E+00  0.000E+00  1.00008E+03  3.209E+00  4.653E+01  4.742E+00 -1.854E-01
   1   13    1     8     6    2.1367E+02 -2.0515E+00   2.1572E+02  0.000E+00  0.000E+00  0.000E+00  9.95097E+02  3.222E+00  4.672E+01  2.857E+00 -2.394E-01



 UBDSV3 SAVING "           GW ET" ON UNIT  61 AT TIME STEP 1, STRESS PERIOD 19
 UBDSV3 SAVING "    UZF RECHARGE" ON UNIT  61 AT TIME STEP 1, STRESS PERIOD 19
 UBDSV3 SAVING " SURFACE LEAKAGE" ON UNIT  61 AT TIME STEP 1, STRESS PERIOD 19
 UBDSV3 SAVING "       HORT+DUNN" ON UNIT  61 AT TIME STEP 1, STRESS PERIOD 19
 UBDSV3 SAVING "  STORAGE CHANGE" ON UNIT  61 AT TIME STEP 1, STRESS PERIOD 19


UNSATURATED ZONE PACKAGE VOLUMETRIC BUDGET FOR  TIME STEP     1 STRESS PERIOD   19
  ------------------------------------------------------------------------------



     CUMULATIVE VOLUMES      L**3       RATES FOR THIS TIME STEP      L**3/T
     ------------------                 ------------------------

           IN:                                      IN:
           ---                                      ---
        INFILTRATION =   545286321.9165          INFILTRATION =          23.3475

          OUT:                                     OUT:
          ----                                     ----
              UZF ET =   473187073.0123                UZF ET =          23.3175
        UZF RECHARGE =    72024631.8946          UZF RECHARGE =       0.0000E+00

            IN - OUT =       74617.0095              IN - OUT =       3.0005E-02

          STORAGE:                                 STORAGE:
          --------                                 --------
      STORAGE CHANGE =       74610.9495        STORAGE CHANGE =       3.0005E-02

 PERCENT DISCREPANCY IS DIFFERENCE BETWEEN IN-OUT MINUS CHANGE IN STORAGE
 DIVIDED BY THE AVERAGE OF IN AND OUT TIMES 100

 PERCENT DISCREPANCY =           0.00     PERCENT DISCREPANCY =           0.00






 

        AG WELLS          PERIOD   19   STEP   1
 AG WELL      1   LAYER   1   ROW     6   COL     4   RATE    -3.75000    
 AG WELL      2   LAYER   1   ROW     6   COL     5   RATE    -3.75000    
 AG WELL      3   LAYER   1   ROW     7   COL     4   RATE    -3.75000    
 AG WELL      4   LAYER   1   ROW     7   COL     5   RATE    -3.75000    
 AG WELL      5   LAYER   1   ROW     8   COL     4   RATE    -3.75000    
 AG WELL      6   LAYER   1   ROW     8   COL     5   RATE    -3.75000    
 
 

        GW IRRIGATION     PERIOD   19   STEP   1
 AG WELL      1   ROW     6   COL     4   RATE     3.75000    
 AG WELL      2   ROW     6   COL     5   RATE     3.75000    
 AG WELL      3   ROW     7   COL     4   RATE     3.75000    
 AG WELL      4   ROW     7   COL     5   RATE     3.75000    
 AG WELL      5   ROW     8   COL     4   RATE     3.75000    
 AG WELL      6   ROW     8   COL     5   RATE     3.75000    
 
1
  VOLUMETRIC BUDGET FOR AGRICULTURAL FIELDS AT  END OF TIME STEP    1, STRESS PERIOD  19
  ------------------------------------------------------------------------------

     CUMULATIVE VOLUMES      L**3       RATES FOR THIS TIME STEP      L**3/T
     ------------------                 ------------------------

           IN:                                      IN:
           ---                                      ---
           AG WELLS      =   507246656.0000             AG WELLS      =          22.5000
      DIVERSION SEGMENTS =           0.0000        DIVERSION SEGMENTS =           0.0000
           GW IRRIGATION =           0.0000             GW IRRIGATION =           0.0000
           SW IRRIGATION =           0.0000             SW IRRIGATION =           0.0000
        SYSTEM LOSSES GW =           0.0000          SYSTEM LOSSES GW =           0.0000
        SYSTEM LOSSES SW =           0.0000          SYSTEM LOSSES SW =           0.0000

                TOTAL IN =   507246656.0000                  TOTAL IN =          22.5000

          OUT:                                     OUT:
          ----                                     ----
           AG WELLS      =           0.0000             AG WELLS      =           0.0000
      DIVERSION SEGMENTS =           0.0000        DIVERSION SEGMENTS =           0.0000
           GW IRRIGATION =   507246656.0000             GW IRRIGATION =          22.5000
           SW IRRIGATION =           0.0000             SW IRRIGATION =           0.0000
        SYSTEM LOSSES GW =           0.0000          SYSTEM LOSSES GW =           0.0000
        SYSTEM LOSSES SW =           0.0000          SYSTEM LOSSES SW =           0.0000

               TOTAL OUT =   507246656.0000                 TOTAL OUT =          22.5000

                IN - OUT =           0.0000                  IN - OUT =           0.0000

     PERCENT DISCREPANCY =           0.00         PERCENT DISCREPANCY =           0.00



1
  VOLUMETRIC BUDGET FOR ENTIRE MODEL AT END OF TIME STEP    1, STRESS PERIOD  19
  ------------------------------------------------------------------------------

     CUMULATIVE VOLUMES      L**3       RATES FOR THIS TIME STEP      L**3/T
     ------------------                 ------------------------

           IN:                                      IN:
           ---                                      ---
             STORAGE     =   660768384.0000               STORAGE     =          21.3320
       CONSTANT HEAD     =           0.0000         CONSTANT HEAD     =           0.0000
     HEAD DEP BOUNDS     =    12810482.0000       HEAD DEP BOUNDS     =           0.2855
      STREAM LEAKAGE     =   563260544.0000        STREAM LEAKAGE     =          12.9551
        UZF RECHARGE     =    72024584.0000          UZF RECHARGE     =           0.0000
               GW ET     =           0.0000                 GW ET     =           0.0000
     SURFACE LEAKAGE     =           0.0000       SURFACE LEAKAGE     =           0.0000
           AG WELLS      =           0.0000             AG WELLS      =           0.0000

                TOTAL IN =  1308864000.0000                  TOTAL IN =          34.5725

          OUT:                                     OUT:
          ----                                     ----
             STORAGE     =   310611904.0000               STORAGE     =           0.5783
       CONSTANT HEAD     =           0.0000         CONSTANT HEAD     =           0.0000
     HEAD DEP BOUNDS     =    13225270.0000       HEAD DEP BOUNDS     =           0.2970
      STREAM LEAKAGE     =   462349728.0000        STREAM LEAKAGE     =          10.4768
        UZF RECHARGE     =           0.0000          UZF RECHARGE     =           0.0000
               GW ET     =    15431400.0000                 GW ET     =           0.7206
     SURFACE LEAKAGE     =           0.0000       SURFACE LEAKAGE     =           0.0000
           AG WELLS      =   507246656.0000             AG WELLS      =          22.5000

               TOTAL OUT =  1308865024.0000                 TOTAL OUT =          34.5726

                IN - OUT =       -1024.0000                  IN - OUT =      -6.8665E-05

     PERCENT DISCREPANCY =          -0.00         PERCENT DISCREPANCY =          -0.00






         TIME SUMMARY AT END OF TIME STEP    1 IN STRESS PERIOD   19
                    SECONDS     MINUTES      HOURS       DAYS        YEARS
                    -----------------------------------------------------------
   TIME STEP LENGTH  87667.      1461.1      24.352      1.0147     2.77799E-03
 STRESS PERIOD TIME  87667.      1461.1      24.352      1.0147     2.77799E-03
         TOTAL TIME 4.48841E+07 7.48069E+05  12468.      519.49      1.4223    
1
 
 SOLVING FOR HEAD 
                                                   Max.-Head-Change                         Max.-Flux-Residual
  Residual-Control   Outer-Iter.   Inner-Iter.     Column Row Layer    Maximum-Head-Change  Column Row Layer    Maximum-Flux-Residual          L2-NORM 
          0                 1           2             5    8     1       0.1784597767E-01       5    8    1         0.9624407130E+00      0.2242665601E+01
          0                 2           2             4    7     1      -0.7113054307E-01       5    8    1        -0.3841208900E+01      0.9385451999E+01
          0                 3           2             4    7     1       0.4843692681E-02       5    8    1         0.2688344138E+00      0.6569098101E+00
          0                 4           2             4    7     1      -0.1927394073E-03       5    8    1        -0.1099182806E-01      0.2686534517E-01
          0                 5           1             4    7     1       0.2372470079E-05       5    8    1         0.1388035776E-03      0.3407871929E-03

    ------------------------------------------------
       NWT REQUIRED            5 OUTER ITERATIONS 
       AND A TOTAL OF          9 INNER ITERATIONS.
    ------------------------------------------------

 NO OUTPUT CONTROL FOR STRESS PERIOD   19   TIME STEP    2
 
 SOLVING FOR HEAD 
                                                   Max.-Head-Change                         Max.-Flux-Residual
  Residual-Control   Outer-Iter.   Inner-Iter.     Column Row Layer    Maximum-Head-Change  Column Row Layer    Maximum-Flux-Residual          L2-NORM 
          0                 1           2             5    8     1       0.1917891233E-01       5    8    1         0.1035673009E+01      0.2365767351E+01
          0                 2           2             4    7     1      -0.7116937403E-01       5    8    1        -0.3848532519E+01      0.9397866118E+01
          0                 3           2             4    7     1       0.4845693370E-02       5    8    1         0.2693144764E+00      0.6576929892E+00
          0                 4           2             4    7     1      -0.1928190144E-03       5    8    1        -0.1101175326E-01      0.2689704781E-01
          0                 5           1             4    7     1       0.2377542110E-05       5    8    1         0.1393142272E-03      0.3413758616E-03

    ------------------------------------------------
       NWT REQUIRED            5 OUTER ITERATIONS 
       AND A TOTAL OF          9 INNER ITERATIONS.
    ------------------------------------------------

 NO OUTPUT CONTROL FOR STRESS PERIOD   19   TIME STEP    3
 
 SOLVING FOR HEAD 
                                                   Max.-Head-Change                         Max.-Flux-Residual
  Residual-Control   Outer-Iter.   Inner-Iter.     Column Row Layer    Maximum-Head-Change  Column Row Layer    Maximum-Flux-Residual          L2-NORM 
          0                 1           2             5    8     1       0.2044081186E-01       5    8    1         0.1104940978E+01      0.2492353756E+01
          0                 2           2             4    7     1      -0.7120977850E-01       5    8    1        -0.3855459599E+01      0.9409882157E+01
          0                 3           2             4    7     1       0.4848445034E-02       5    8    1         0.2698021042E+00      0.6585358357E+00
          0                 4           2             4    7     1      -0.1929285045E-03       5    8    1        -0.1103196751E-01      0.2693130076E-01
          0                 5           1             4    7     1       0.2378892225E-05       5    8    1         0.1395887346E-03      0.3416797269E-03

    ------------------------------------------------
       NWT REQUIRED            5 OUTER ITERATIONS 
       AND A TOTAL OF          9 INNER ITERATIONS.
    ------------------------------------------------

 NO OUTPUT CONTROL FOR STRESS PERIOD   19   TIME STEP    4
 
 SOLVING FOR HEAD 
                                                   Max.-Head-Change                         Max.-Flux-Residual
  Residual-Control   Outer-Iter.   Inner-Iter.     Column Row Layer    Maximum-Head-Change  Column Row Layer    Maximum-Flux-Residual          L2-NORM 
          0                 1           2             5    8     1       0.2163622721E-01       5    8    1         0.1170501163E+01      0.2619406735E+01
          0                 2           2             4    7     1      -0.7125157605E-01       5    8    1        -0.3862015767E+01      0.9421512729E+01
          0                 3           2             4    7     1       0.4851291538E-02       5    8    1         0.2702635817E+00      0.6593521252E+00
          0                 4           2             4    7     1      -0.1930417685E-03       5    8    1        -0.1105109377E-01      0.2696456463E-01
          0                 5           1             4    7     1       0.2380288714E-05       5    8    1         0.1398482254E-03      0.3419942034E-03

    ------------------------------------------------
       NWT REQUIRED            5 OUTER ITERATIONS 
       AND A TOTAL OF          9 INNER ITERATIONS.
    ------------------------------------------------

 NO OUTPUT CONTROL FOR STRESS PERIOD   19   TIME STEP    5
 
 SOLVING FOR HEAD 
                                                   Max.-Head-Change                         Max.-Flux-Residual
  Residual-Control   Outer-Iter.   Inner-Iter.     Column Row Layer    Maximum-Head-Change  Column Row Layer    Maximum-Flux-Residual          L2-NORM 
          0                 1           2             5    8     1       0.2276979504E-01       5    8    1         0.1232614641E+01      0.2745110368E+01
          0                 2           2             4    7     1      -0.7129461383E-01       5    8    1        -0.3868227263E+01      0.9432772402E+01
          0                 3           2             4    7     1       0.4854222475E-02       5    8    1         0.2707007595E+00      0.6601428121E+00
          0                 4           2             4    7     1      -0.1931583918E-03       5    8    1        -0.1106920912E-01      0.2699686236E-01
          0                 5           1             4    7     1       0.2381726761E-05       5    8    1         0.1400937185E-03      0.3423116953E-03

    ------------------------------------------------
       NWT REQUIRED            5 OUTER ITERATIONS 
       AND A TOTAL OF          9 INNER ITERATIONS.
    ------------------------------------------------

 NO OUTPUT CONTROL FOR STRESS PERIOD   19   TIME STEP    6
 
 SOLVING FOR HEAD 
                                                   Max.-Head-Change                         Max.-Flux-Residual
  Residual-Control   Outer-Iter.   Inner-Iter.     Column Row Layer    Maximum-Head-Change  Column Row Layer    Maximum-Flux-Residual          L2-NORM 
          0                 1           2             5    8     1       0.2384550205E-01       5    8    1         0.1291505914E+01      0.2868387616E+01
          0                 2           2             4    7     1      -0.7133875987E-01       5    8    1        -0.3874116536E+01      0.9443676329E+01
          0                 3           2             4    7     1       0.4857228859E-02       5    8    1         0.2711152226E+00      0.6609088705E+00
          0                 4           2             4    7     1      -0.1932780176E-03       5    8    1        -0.1108637970E-01      0.2702822230E-01
          0                 5           1             4    7     1       0.2383201548E-05       5    8    1         0.1403261701E-03      0.3426373942E-03

    ------------------------------------------------
       NWT REQUIRED            5 OUTER ITERATIONS 
       AND A TOTAL OF          9 INNER ITERATIONS.
    ------------------------------------------------

 NO OUTPUT CONTROL FOR STRESS PERIOD   19   TIME STEP    7
 
 SOLVING FOR HEAD 
                                                   Max.-Head-Change                         Max.-Flux-Residual
  Residual-Control   Outer-Iter.   Inner-Iter.     Column Row Layer    Maximum-Head-Change  Column Row Layer    Maximum-Flux-Residual          L2-NORM 
          0                 1           2             5    8     1       0.2486745212E-01       5    8    1         0.1347405302E+01      0.2988623608E+01
          0                 2           2             4    7     1      -0.7138386373E-01       5    8    1        -0.3879706618E+01      0.9454239104E+01
          0                 3           2             4    7     1       0.4860300449E-02       5    8    1         0.2715085937E+00      0.6616512746E+00
          0                 4           2             4    7     1      -0.1934002383E-03       5    8    1        -0.1110267292E-01      0.2705867251E-01
          0                 5           1             4    7     1       0.2384708932E-05       5    8    1         0.1405465337E-03      0.3429658728E-03

    ------------------------------------------------
       NWT REQUIRED            5 OUTER ITERATIONS 
       AND A TOTAL OF          9 INNER ITERATIONS.
    ------------------------------------------------

 NO OUTPUT CONTROL FOR STRESS PERIOD   19   TIME STEP    8
 
 SOLVING FOR HEAD 
                                                   Max.-Head-Change                         Max.-Flux-Residual
  Residual-Control   Outer-Iter.   Inner-Iter.     Column Row Layer    Maximum-Head-Change  Column Row Layer    Maximum-Flux-Residual          L2-NORM 
          0                 1           2             5    8     1       0.2583900125E-01       5    8    1         0.1400501941E+01      0.3105466839E+01
          0                 2           2             4    7     1      -0.7142982412E-01       5    8    1        -0.3885016422E+01      0.9464473294E+01
          0                 3           2             4    7     1       0.4863430346E-02       5    8    1         0.2718822090E+00      0.6623708435E+00
          0                 4           2             4    7     1      -0.1935247791E-03       5    8    1        -0.1111814468E-01      0.2708823635E-01
          0                 5           1             4    7     1       0.2386244431E-05       5    8    1         0.1407555444E-03      0.3432956013E-03

    ------------------------------------------------
       NWT REQUIRED            5 OUTER ITERATIONS 
       AND A TOTAL OF          9 INNER ITERATIONS.
    ------------------------------------------------

 NO OUTPUT CONTROL FOR STRESS PERIOD   19   TIME STEP    9
 
 SOLVING FOR HEAD 
                                                   Max.-Head-Change                         Max.-Flux-Residual
  Residual-Control   Outer-Iter.   Inner-Iter.     Column Row Layer    Maximum-Head-Change  Column Row Layer    Maximum-Flux-Residual          L2-NORM 
          0                 1           2             5    8     1       0.2676353142E-01       5    8    1         0.1450985573E+01      0.3218781599E+01
          0                 2           2             4    7     1      -0.7147649448E-01       5    8    1        -0.3890064921E+01      0.9474393646E+01
          0                 3           2             4    7     1       0.4866608572E-02       5    8    1         0.2722374054E+00      0.6630685617E+00
          0                 4           2             4    7     1      -0.1936512425E-03       5    8    1        -0.1113285049E-01      0.2711694330E-01
          0                 5           1             4    7     1       0.2387803565E-05       5    8    1         0.1409539955E-03      0.3436261509E-03

    ------------------------------------------------
       NWT REQUIRED            5 OUTER ITERATIONS 
       AND A TOTAL OF          9 INNER ITERATIONS.
    ------------------------------------------------

 NO OUTPUT CONTROL FOR STRESS PERIOD   19   TIME STEP   10
 
 SOLVING FOR HEAD 
                                                   Max.-Head-Change                         Max.-Flux-Residual
  Residual-Control   Outer-Iter.   Inner-Iter.     Column Row Layer    Maximum-Head-Change  Column Row Layer    Maximum-Flux-Residual          L2-NORM 
          0                 1           2             5    8     1       0.2764388349E-01       5    8    1         0.1499015787E+01      0.3328526148E+01
          0                 2           2             4    7     1      -0.7152379043E-01       5    8    1        -0.3894868075E+01      0.9484013418E+01
          0                 3           2             4    7     1       0.4869829382E-02       5    8    1         0.2725753103E+00      0.6637453311E+00
          0                 4           2             4    7     1      -0.1937794011E-03       5    8    1        -0.1114683746E-01      0.2714483200E-01
          0                 5           1             4    7     1       0.2389383647E-05       5    8    1         0.1411425619E-03      0.3439557128E-03

    ------------------------------------------------
       NWT REQUIRED            5 OUTER ITERATIONS 
       AND A TOTAL OF          9 INNER ITERATIONS.
    ------------------------------------------------

 NO OUTPUT CONTROL FOR STRESS PERIOD   19   TIME STEP   11
 
 SOLVING FOR HEAD 
                                                   Max.-Head-Change                         Max.-Flux-Residual
  Residual-Control   Outer-Iter.   Inner-Iter.     Column Row Layer    Maximum-Head-Change  Column Row Layer    Maximum-Flux-Residual          L2-NORM 
          0                 1           2             5    8     1       0.2848296621E-01       5    8    1         0.1544755615E+01      0.3434720410E+01
          0                 2           2             4    7     1      -0.7157158072E-01       5    8    1        -0.3899442186E+01      0.9493343786E+01
          0                 3           2             4    7     1       0.4873083839E-02       5    8    1         0.2728970721E+00      0.6644018871E+00
          0                 4           2             4    7     1      -0.1939088984E-03       5    8    1        -0.1116015329E-01      0.2717191598E-01
          0                 5           1             4    7     1       0.2390980418E-05       5    8    1         0.1413218909E-03      0.3442831962E-03

    ------------------------------------------------
       NWT REQUIRED            5 OUTER ITERATIONS 
       AND A TOTAL OF          9 INNER ITERATIONS.
    ------------------------------------------------

 NO OUTPUT CONTROL FOR STRESS PERIOD   19   TIME STEP   12
 
 SOLVING FOR HEAD 
                                                   Max.-Head-Change                         Max.-Flux-Residual
  Residual-Control   Outer-Iter.   Inner-Iter.     Column Row Layer    Maximum-Head-Change  Column Row Layer    Maximum-Flux-Residual          L2-NORM 
          0                 1           2             5    8     1       0.2928346693E-01       5    8    1         0.1588355861E+01      0.3537437787E+01
          0                 2           2             4    7     1      -0.7161980920E-01       5    8    1        -0.3903802335E+01      0.9502397523E+01
          0                 3           2             4    7     1       0.4876368121E-02       5    8    1         0.2732037549E+00      0.6650391012E+00
          0                 4           2             4    7     1      -0.1940395824E-03       5    8    1        -0.1117284236E-01      0.2719822833E-01
          0                 5           1             4    7     1       0.2392591976E-05       5    8    1         0.1414925623E-03      0.3446075098E-03

    ------------------------------------------------
       NWT REQUIRED            5 OUTER ITERATIONS 
       AND A TOTAL OF          9 INNER ITERATIONS.
    ------------------------------------------------

 NO OUTPUT CONTROL FOR STRESS PERIOD   19   TIME STEP   13
 
 SOLVING FOR HEAD 
                                                   Max.-Head-Change                         Max.-Flux-Residual
  Residual-Control   Outer-Iter.   Inner-Iter.     Column Row Layer    Maximum-Head-Change  Column Row Layer    Maximum-Flux-Residual          L2-NORM 
          0                 1           2             5    8     1       0.3004773377E-01       5    8    1         0.1629947975E+01      0.3636777207E+01
          0                 2           2             4    7     1      -0.7166834514E-01       5    8    1        -0.3907961667E+01      0.9511185775E+01
          0                 3           2             4    7     1       0.4879674979E-02       5    8    1         0.2739674829E+00      0.6658537396E+00
          0                 4           2             4    7     1      -0.1941711545E-03       5    8    1        -0.1120420281E-01      0.2723176433E-01
          0                 5           1             4    7     1       0.2394214511E-05       5    8    1         0.1419015982E-03      0.3450247117E-03

    ------------------------------------------------
       NWT REQUIRED            5 OUTER ITERATIONS 
       AND A TOTAL OF          9 INNER ITERATIONS.
    ------------------------------------------------

 NO OUTPUT CONTROL FOR STRESS PERIOD   19   TIME STEP   14
 
 SOLVING FOR HEAD 
                                                   Max.-Head-Change                         Max.-Flux-Residual
  Residual-Control   Outer-Iter.   Inner-Iter.     Column Row Layer    Maximum-Head-Change  Column Row Layer    Maximum-Flux-Residual          L2-NORM 
          0                 1           2             5    8     1       0.3074397364E-01       5    8    1         0.1669833167E+01      0.3732950978E+01
          0                 2           2             4    7     1      -0.7171711578E-01       5    6    1        -0.3910368143E+01      0.9518855369E+01
          0                 3           2             4    7     1       0.4883010154E-02       5    8    1         0.2757764954E+00      0.6670958545E+00
          0                 4           2             4    7     1      -0.1943038631E-03       5    8    1        -0.1127898081E-01      0.2728327048E-01
          0                 5           1             4    7     1       0.2395850711E-05       5    8    1         0.1429028434E-03      0.3456935413E-03

    ------------------------------------------------
       NWT REQUIRED            5 OUTER ITERATIONS 
       AND A TOTAL OF          9 INNER ITERATIONS.
    ------------------------------------------------

 NO OUTPUT CONTROL FOR STRESS PERIOD   19   TIME STEP   15
 
 SOLVING FOR HEAD 
                                                   Max.-Head-Change                         Max.-Flux-Residual
  Residual-Control   Outer-Iter.   Inner-Iter.     Column Row Layer    Maximum-Head-Change  Column Row Layer    Maximum-Flux-Residual          L2-NORM 
          0                 1           2             5    8     1       0.3146878010E-01       5    8    1         0.1709315316E+01      0.3826765354E+01
          0                 2           2             4    7     1      -0.7176607956E-01       5    8    1        -0.3915409896E+01      0.9527878249E+01
          0                 3           2             5    8     1       0.4901853097E-02       5    8    1         0.2777926088E+00      0.6684213956E+00
          0                 4           2             5    8     1      -0.1950535325E-03       5    8    1        -0.1136323932E-01      0.2733971585E-01
          0                 5           1             5    8     1       0.2405094736E-05       5    8    1         0.1441426461E-03      0.3467894645E-03

    ------------------------------------------------
       NWT REQUIRED            5 OUTER ITERATIONS 
       AND A TOTAL OF          9 INNER ITERATIONS.
    ------------------------------------------------

 NO OUTPUT CONTROL FOR STRESS PERIOD   19   TIME STEP   16
 
 SOLVING FOR HEAD 
                                                   Max.-Head-Change                         Max.-Flux-Residual
  Residual-Control   Outer-Iter.   Inner-Iter.     Column Row Layer    Maximum-Head-Change  Column Row Layer    Maximum-Flux-Residual          L2-NORM 
          0                 1           2             5    8     1       0.3216071839E-01       5    8    1         0.1746974011E+01      0.3917482243E+01
          0                 2           2             4    7     1      -0.7181510889E-01       5    8    1        -0.3919661396E+01      0.9536196354E+01
          0                 3           2             4    7     1       0.4889669798E-02       5    8    1         0.2743268417E+00      0.6674254216E+00
          0                 4           2             4    7     1      -0.1945688564E-03       5    8    1        -0.1121902265E-01      0.2729678807E-01
          0                 5           1             4    7     1       0.2399118296E-05       5    8    1         0.1420977032E-03      0.3458708415E-03

    ------------------------------------------------
       NWT REQUIRED            5 OUTER ITERATIONS 
       AND A TOTAL OF          9 INNER ITERATIONS.
    ------------------------------------------------

 NO OUTPUT CONTROL FOR STRESS PERIOD   19   TIME STEP   17
 
 SOLVING FOR HEAD 
                                                   Max.-Head-Change                         Max.-Flux-Residual
  Residual-Control   Outer-Iter.   Inner-Iter.     Column Row Layer    Maximum-Head-Change  Column Row Layer    Maximum-Flux-Residual          L2-NORM 
          0                 1           2             5    8     1       0.3282205822E-01       5    8    1         0.1782936358E+01      0.4005231142E+01
          0                 2           2             4    7     1      -0.7186420644E-01       5    8    1        -0.3923257598E+01      0.9544082731E+01
          0                 3           2             4    7     1       0.4893013207E-02       5    8    1         0.2745797418E+00      0.6679803022E+00
          0                 4           2             4    7     1      -0.1947018935E-03       5    8    1        -0.1122947913E-01      0.2731972895E-01
          0                 5           1             4    7     1       0.2400758417E-05       5    8    1         0.1422378905E-03      0.3461698335E-03

    ------------------------------------------------
       NWT REQUIRED            5 OUTER ITERATIONS 
       AND A TOTAL OF          9 INNER ITERATIONS.
    ------------------------------------------------

 NO OUTPUT CONTROL FOR STRESS PERIOD   19   TIME STEP   18
 
 SOLVING FOR HEAD 
                                                   Max.-Head-Change                         Max.-Flux-Residual
  Residual-Control   Outer-Iter.   Inner-Iter.     Column Row Layer    Maximum-Head-Change  Column Row Layer    Maximum-Flux-Residual          L2-NORM 
          0                 1           2             5    8     1       0.3345447862E-01       5    8    1         0.1817296408E+01      0.4090133656E+01
          0                 2           2             4    7     1      -0.7191325831E-01       5    8    1        -0.3926693570E+01      0.9551748568E+01
          0                 3           2             4    7     1       0.4896353496E-02       5    8    1         0.2748213489E+00      0.6685190070E+00
          0                 4           2             4    7     1      -0.1948348066E-03       5    8    1        -0.1123946630E-01      0.2734194282E-01
          0                 5           1             4    7     1       0.2402397306E-05       5    8    1         0.1423716267E-03      0.3464578264E-03

    ------------------------------------------------
       NWT REQUIRED            5 OUTER ITERATIONS 
       AND A TOTAL OF          9 INNER ITERATIONS.
    ------------------------------------------------

 NO OUTPUT CONTROL FOR STRESS PERIOD   19   TIME STEP   19
 
 SOLVING FOR HEAD 
                                                   Max.-Head-Change                         Max.-Flux-Residual
  Residual-Control   Outer-Iter.   Inner-Iter.     Column Row Layer    Maximum-Head-Change  Column Row Layer    Maximum-Flux-Residual          L2-NORM 
          0                 1           2             5    8     1       0.3405995382E-01       5    8    1         0.1850164833E+01      0.4172317512E+01
          0                 2           2             4    7     1      -0.7196224926E-01       5    8    1        -0.3929980379E+01      0.9559202824E+01
          0                 3           2             4    7     1       0.4899689627E-02       5    8    1         0.2750524438E+00      0.6690426130E+00
          0                 4           2             4    7     1      -0.1949675543E-03       5    8    1        -0.1124901662E-01      0.2736351520E-01
          0                 5           1             4    7     1       0.2404034403E-05       5    8    1         0.1424993434E-03      0.3467359272E-03

    ------------------------------------------------
       NWT REQUIRED            5 OUTER ITERATIONS 
       AND A TOTAL OF          9 INNER ITERATIONS.
    ------------------------------------------------

 NO OUTPUT CONTROL FOR STRESS PERIOD   19   TIME STEP   20
 
 SOLVING FOR HEAD 
                                                   Max.-Head-Change                         Max.-Flux-Residual
  Residual-Control   Outer-Iter.   Inner-Iter.     Column Row Layer    Maximum-Head-Change  Column Row Layer    Maximum-Flux-Residual          L2-NORM 
          0                 1           2             5    8     1       0.3464003094E-01       5    8    1         0.1881628258E+01      0.4251905190E+01
          0                 2           2             4    7     1      -0.7201110151E-01       5    8    1        -0.3933126690E+01      0.9566454249E+01
          0                 3           2             4    7     1       0.4903016305E-02       5    8    1         0.2752736376E+00      0.6695516841E+00
          0                 4           2             4    7     1      -0.1950999259E-03       5    8    1        -0.1125815555E-01      0.2738446426E-01
          0                 5           1             4    7     1       0.2405666459E-05       5    8    1         0.1426214048E-03      0.3470055080E-03

    ------------------------------------------------
       NWT REQUIRED            5 OUTER ITERATIONS 
       AND A TOTAL OF          9 INNER ITERATIONS.
    ------------------------------------------------

 NO OUTPUT CONTROL FOR STRESS PERIOD   19   TIME STEP   21
 
 SOLVING FOR HEAD 
                                                   Max.-Head-Change                         Max.-Flux-Residual
  Residual-Control   Outer-Iter.   Inner-Iter.     Column Row Layer    Maximum-Head-Change  Column Row Layer    Maximum-Flux-Residual          L2-NORM 
          0                 1           2             5    8     1       0.3519628843E-01       5    8    1         0.1911774771E+01      0.4328995824E+01
          0                 2           2             4    7     1      -0.7205976858E-01       5    8    1        -0.3936141309E+01      0.9573509830E+01
          0                 3           2             4    7     1       0.4906330365E-02       5    8    1         0.2754855508E+00      0.6700468048E+00
          0                 4           2             4    7     1      -0.1952317955E-03       5    8    1        -0.1126690887E-01      0.2740482251E-01
          0                 5           1             4    7     1       0.2407292691E-05       5    8    1         0.1427381976E-03      0.3472676607E-03

    ------------------------------------------------
       NWT REQUIRED            5 OUTER ITERATIONS 
       AND A TOTAL OF          9 INNER ITERATIONS.
    ------------------------------------------------

 NO OUTPUT CONTROL FOR STRESS PERIOD   19   TIME STEP   22
 
 SOLVING FOR HEAD 
                                                   Max.-Head-Change                         Max.-Flux-Residual
  Residual-Control   Outer-Iter.   Inner-Iter.     Column Row Layer    Maximum-Head-Change  Column Row Layer    Maximum-Flux-Residual          L2-NORM 
          0                 1           2             5    8     1       0.3572990282E-01       5    8    1         0.1940670479E+01      0.4403709309E+01
          0                 2           2             4    7     1      -0.7210822110E-01       5    8    1        -0.3939030848E+01      0.9580377346E+01
          0                 3           2             4    7     1       0.4909629809E-02       5    8    1         0.2756886504E+00      0.6705287100E+00
          0                 4           2             4    7     1      -0.1953630833E-03       5    8    1        -0.1127529610E-01      0.2742463751E-01
          0                 5           1             4    7     1       0.2408911529E-05       5    8    1         0.1428499527E-03      0.3475246231E-03

    ------------------------------------------------
       NWT REQUIRED            5 OUTER ITERATIONS 
       AND A TOTAL OF          9 INNER ITERATIONS.
    ------------------------------------------------

 NO OUTPUT CONTROL FOR STRESS PERIOD   19   TIME STEP   23
 
 SOLVING FOR HEAD 
                                                   Max.-Head-Change                         Max.-Flux-Residual
  Residual-Control   Outer-Iter.   Inner-Iter.     Column Row Layer    Maximum-Head-Change  Column Row Layer    Maximum-Flux-Residual          L2-NORM 
          0                 1           2             5    8     1       0.3624253218E-01       5    8    1         0.1968407854E+01      0.4476147333E+01
          0                 2           2             4    7     1      -0.7215640676E-01       5    8    1        -0.3941804554E+01      0.9587064263E+01
          0                 3           2             4    7     1       0.4912911072E-02       5    8    1         0.2758835881E+00      0.6709979207E+00
          0                 4           2             4    7     1      -0.1954936478E-03       5    8    1        -0.1128334428E-01      0.2744393026E-01
          0                 5           1             4    7     1       0.2410521182E-05       5    8    1         0.1429570568E-03      0.3477734132E-03

    ------------------------------------------------
       NWT REQUIRED            5 OUTER ITERATIONS 
       AND A TOTAL OF          9 INNER ITERATIONS.
    ------------------------------------------------

 NO OUTPUT CONTROL FOR STRESS PERIOD   19   TIME STEP   24
 
 SOLVING FOR HEAD 
                                                   Max.-Head-Change                         Max.-Flux-Residual
  Residual-Control   Outer-Iter.   Inner-Iter.     Column Row Layer    Maximum-Head-Change  Column Row Layer    Maximum-Flux-Residual          L2-NORM 
          0                 1           2             5    8     1       0.3673529688E-01       5    8    1         0.1995049263E+01      0.4546414156E+01
          0                 2           2             4    7     1      -0.7220429069E-01       5    8    1        -0.3944468664E+01      0.9593577808E+01
          0                 3           2             4    7     1       0.4916171783E-02       5    8    1         0.2760708034E+00      0.6714549434E+00
          0                 4           2             4    7     1      -0.1956233946E-03       5    8    1        -0.1129107170E-01      0.2746272146E-01
          0                 5           1             4    7     1       0.2412121090E-05       5    8    1         0.1430597561E-03      0.3480159728E-03

    ------------------------------------------------
       NWT REQUIRED            5 OUTER ITERATIONS 
       AND A TOTAL OF          9 INNER ITERATIONS.
    ------------------------------------------------

 NO OUTPUT CONTROL FOR STRESS PERIOD   19   TIME STEP   25
 
 SOLVING FOR HEAD 
                                                   Max.-Head-Change                         Max.-Flux-Residual
  Residual-Control   Outer-Iter.   Inner-Iter.     Column Row Layer    Maximum-Head-Change  Column Row Layer    Maximum-Flux-Residual          L2-NORM 
          0                 1           2             5    8     1       0.3720909276E-01       5    8    1         0.2020644935E+01      0.4614587851E+01
          0                 2           2             4    7     1      -0.7225185395E-01       5    8    1        -0.3947028201E+01      0.9599923267E+01
          0                 3           2             4    7     1       0.4919410653E-02       5    8    1         0.2762506236E+00      0.6718999867E+00
          0                 4           2             4    7     1      -0.1957522724E-03       5    8    1        -0.1129848918E-01      0.2748100304E-01
          0                 5           1             4    7     1       0.2413710245E-05       5    8    1         0.1431580249E-03      0.3483016058E-03

    ------------------------------------------------
       NWT REQUIRED            5 OUTER ITERATIONS 
       AND A TOTAL OF          9 INNER ITERATIONS.
    ------------------------------------------------

 NO OUTPUT CONTROL FOR STRESS PERIOD   19   TIME STEP   26
 
 SOLVING FOR HEAD 
                                                   Max.-Head-Change                         Max.-Flux-Residual
  Residual-Control   Outer-Iter.   Inner-Iter.     Column Row Layer    Maximum-Head-Change  Column Row Layer    Maximum-Flux-Residual          L2-NORM 
          0                 1           2             5    8     1       0.3766531562E-01       5    8    1         0.2045272781E+01      0.4680777734E+01
          0                 2           2             4    7     1      -0.7229905408E-01       5    8    1        -0.3949490956E+01      0.9606108198E+01
          0                 3           2             4    7     1       0.4922624788E-02       5    8    1         0.2764233391E+00      0.6723333969E+00
          0                 4           2             4    7     1      -0.1958801656E-03       5    8    1        -0.1130558429E-01      0.2749877105E-01
          0                 5           1             4    7     1       0.2415286965E-05       5    8    1         0.1432500565E-03      0.3484787476E-03

    ------------------------------------------------
       NWT REQUIRED            5 OUTER ITERATIONS 
       AND A TOTAL OF          9 INNER ITERATIONS.
    ------------------------------------------------

 NO OUTPUT CONTROL FOR STRESS PERIOD   19   TIME STEP   27
 
 SOLVING FOR HEAD 
                                                   Max.-Head-Change                         Max.-Flux-Residual
  Residual-Control   Outer-Iter.   Inner-Iter.     Column Row Layer    Maximum-Head-Change  Column Row Layer    Maximum-Flux-Residual          L2-NORM 
          0                 1           2             5    8     1       0.3810484597E-01       5    8    1         0.2068981576E+01      0.4745059682E+01
          0                 2           2             4    7     1      -0.7234587848E-01       5    8    1        -0.3951861806E+01      0.9612138122E+01
          0                 3           2             4    7     1       0.4925813334E-02       5    8    1         0.2765895989E+00      0.6727559389E+00
          0                 4           2             4    7     1      -0.1960070413E-03       5    8    1        -0.1131241318E-01      0.2751609379E-01
          0                 5           1             4    7     1       0.2416851477E-05       5    8    1         0.1433385628E-03      0.3487012826E-03

    ------------------------------------------------
       NWT REQUIRED            5 OUTER ITERATIONS 
       AND A TOTAL OF          9 INNER ITERATIONS.
    ------------------------------------------------

 NO OUTPUT CONTROL FOR STRESS PERIOD   19   TIME STEP   28
 
 SOLVING FOR HEAD 
                                                   Max.-Head-Change                         Max.-Flux-Residual
  Residual-Control   Outer-Iter.   Inner-Iter.     Column Row Layer    Maximum-Head-Change  Column Row Layer    Maximum-Flux-Residual          L2-NORM 
          0                 1           2             5    8     1       0.3852788812E-01       5    8    1         0.2091816977E+01      0.4809253481E+01
          0                 2           2             4    7     1      -0.7239227582E-01       5    8    1        -0.3954145312E+01      0.9618025651E+01
          0                 3           2             4    7     1       0.4928972793E-02       5    8    1         0.2767497253E+00      0.6731682635E+00
          0                 4           2             4    7     1      -0.1961327591E-03       5    8    1        -0.1131898930E-01      0.2753297573E-01
          0                 5           1             4    7     1       0.2418401986E-05       5    8    1         0.1434237270E-03      0.3489601670E-03

    ------------------------------------------------
       NWT REQUIRED            5 OUTER ITERATIONS 
       AND A TOTAL OF          9 INNER ITERATIONS.
    ------------------------------------------------

 NO OUTPUT CONTROL FOR STRESS PERIOD   19   TIME STEP   29
 
 SOLVING FOR HEAD 
                                                   Max.-Head-Change                         Max.-Flux-Residual
  Residual-Control   Outer-Iter.   Inner-Iter.     Column Row Layer    Maximum-Head-Change  Column Row Layer    Maximum-Flux-Residual          L2-NORM 
          0                 1           2             5    8     1       0.3893535430E-01       5    8    1         0.2113805304E+01      0.4873164454E+01
          0                 2           2             4    7     1      -0.7243825135E-01       5    8    1        -0.3956344110E+01      0.9623773436E+01
          0                 3           2             4    7     1       0.4932103525E-02       5    8    1         0.2769039047E+00      0.6735707513E+00
          0                 4           2             4    7     1      -0.1962573343E-03       5    8    1        -0.1132532046E-01      0.2754944972E-01
          0                 5           1             4    7     1       0.2419937821E-05       5    8    1         0.1435056629E-03      0.3491249950E-03

    ------------------------------------------------
       NWT REQUIRED            5 OUTER ITERATIONS 
       AND A TOTAL OF          9 INNER ITERATIONS.
    ------------------------------------------------

 NO OUTPUT CONTROL FOR STRESS PERIOD   19   TIME STEP   30



 STREAM LISTING     PERIOD     19   STEP       30

 LAYER ROW COL. STREAM  RCH.  FLOW INTO     FLOW TO   FLOW OUT OF   OVRLND.     DIRECT     STREAM       STREAM     STREAM     STREAM   STREAMBED  STREAMBED
                SEG.NO.  NO.  STRM. RCH.    AQUIFER    STRM. RCH.    RUNOFF     PRECIP       ET          HEAD       DEPTH      WIDTH   CONDCTNC.   GRADIENT

   1    1    1     1     1    5.4001E+01  3.5066E-01   5.3650E+01  0.000E+00  0.000E+00  0.000E+00  1.09450E+03  1.450E+00  1.751E+01  7.879E-02  1.483E+00
   1    2    2     1     2    5.3650E+01  5.4294E-01   5.3107E+01  0.000E+00  0.000E+00  0.000E+00  1.08950E+03  1.445E+00  1.745E+01  1.222E-01  1.482E+00
   1    3    3     1     3    5.3107E+01  4.6294E-01   5.2644E+01  0.000E+00  0.000E+00  0.000E+00  1.08386E+03  1.438E+00  1.739E+01  1.043E-01  1.479E+00
   1    3    4     1     4    5.2644E+01  4.2621E-01   5.2218E+01  0.000E+00  0.000E+00  0.000E+00  1.07884E+03  1.432E+00  1.733E+01  9.616E-02  1.477E+00
   1    4    5     2     1    5.0218E+01  3.7682E-01   4.9841E+01  0.000E+00  0.000E+00  0.000E+00  1.07376E+03  1.831E+00  1.200E+01  7.800E-02  1.610E+00
   1    5    6     2     2    4.9841E+01  2.8942E-01   4.9552E+01  0.000E+00  0.000E+00  0.000E+00  1.06833E+03  1.824E+00  1.200E+01  6.000E-02  1.608E+00
   1    6    6     2     3    4.9552E+01  2.8904E-01   4.9263E+01  0.000E+00  0.000E+00  0.000E+00  1.06361E+03  1.817E+00  1.200E+01  6.000E-02  1.606E+00
   1    7    6     2     4    4.9263E+01  2.8865E-01   4.8974E+01  0.000E+00  0.000E+00  0.000E+00  1.05889E+03  1.811E+00  1.200E+01  6.000E-02  1.604E+00
   1    8    6     2     5    4.8974E+01  2.8827E-01   4.8686E+01  0.000E+00  0.000E+00  0.000E+00  1.05416E+03  1.804E+00  1.200E+01  6.000E-02  1.601E+00
   1    3    5     3     1    2.0000E+00  2.8252E-01   1.7175E+00  0.000E+00  0.000E+00  0.000E+00  1.07555E+03  1.909E+00  9.636E+00  7.227E-02  1.955E+00
   1    3    6     3     2    1.7175E+00  2.4905E-01   1.4684E+00  0.000E+00  0.000E+00  0.000E+00  1.07264E+03  1.727E+00  8.909E+00  6.682E-02  1.864E+00
   1    3    7     3     3    1.4684E+00  1.9718E-01   1.2712E+00  0.000E+00  0.000E+00  0.000E+00  1.06987E+03  1.555E+00  8.218E+00  5.547E-02  1.777E+00
   1    4    8     3     4    1.2712E+00  2.2567E-01   1.0456E+00  0.000E+00  0.000E+00  0.000E+00  1.06682E+03  1.364E+00  7.455E+00  6.709E-02  1.682E+00
   1    5    8     3     5    1.0456E+00  1.5790E-01   8.8768E-01  0.000E+00  0.000E+00  0.000E+00  1.06362E+03  1.164E+00  6.655E+00  4.991E-02  1.582E+00
   1    6    8     3     6    8.8768E-01  5.5980E-02   8.3170E-01  0.000E+00  0.000E+00  0.000E+00  1.06158E+03  1.036E+00  6.145E+00  1.844E-02  1.518E+00
   1    5   10     4     1    1.0000E+01  9.0919E-02   9.9091E+00  0.000E+00  0.000E+00  0.000E+00  1.07836E+03  6.368E-01  1.000E+01  2.500E-02  1.212E+00
   1    5    9     4     2    9.9091E+00  1.8158E-01   9.7275E+00  0.000E+00  0.000E+00  0.000E+00  1.07154E+03  6.315E-01  1.000E+01  5.000E-02  1.211E+00
   1    6    8     4     3    9.7275E+00  1.2689E-01   9.6006E+00  0.000E+00  0.000E+00  0.000E+00  1.06381E+03  6.256E-01  1.000E+01  3.500E-02  1.209E+00
   1    6    8     5     1    1.0432E+01  2.2686E-01   1.0205E+01  0.000E+00  0.000E+00  0.000E+00  1.05868E+03  6.790E-01  1.542E+01  6.166E-02  1.226E+00
   1    7    7     5     2    1.0205E+01  2.7894E-01   9.9265E+00  0.000E+00  0.000E+00  0.000E+00  1.05417E+03  6.732E-01  1.519E+01  7.594E-02  1.224E+00
   1    8    7     5     3    9.9265E+00  1.9221E-01   9.7343E+00  0.000E+00  0.000E+00  0.000E+00  1.04992E+03  6.676E-01  1.497E+01  5.241E-02  1.223E+00
   1    8    6     5     4    9.7343E+00  1.3577E-01   9.5985E+00  0.000E+00  0.000E+00  0.000E+00  1.04691E+03  6.637E-01  1.482E+01  3.706E-02  1.221E+00
   1    9    6     6     1    5.8284E+01  3.0156E-01   5.7983E+01  0.000E+00  0.000E+00  0.000E+00  1.04475E+03  2.026E+00  1.200E+01  6.000E-02  1.675E+00
   1   10    7     6     2    5.7983E+01  3.0118E-01   5.7682E+01  0.000E+00  0.000E+00  0.000E+00  1.04020E+03  2.020E+00  1.200E+01  6.000E-02  1.673E+00
   1   11    7     6     3    5.7682E+01  3.0080E-01   5.7381E+01  0.000E+00  0.000E+00  0.000E+00  1.03565E+03  2.013E+00  1.200E+01  6.000E-02  1.671E+00
   1   12    7     6     4    5.7381E+01  3.0042E-01   5.7080E+01  0.000E+00  0.000E+00  0.000E+00  1.03110E+03  2.007E+00  1.200E+01  6.000E-02  1.669E+00
   1   13    7     6     5    5.7080E+01  1.9765E-02   5.7061E+01  0.000E+00  0.000E+00  0.000E+00  1.02791E+03  2.004E+00  1.200E+01  2.400E-02  2.745E-01
   1   14    9     7     1    1.5000E+02  1.3321E+00   1.4867E+02  0.000E+00  0.000E+00  0.000E+00  1.03987E+03  2.288E+00  5.529E+01  5.593E-01  7.939E-01
   1   13    8     7     2    1.4867E+02  1.8284E+00   1.4684E+02  0.000E+00  0.000E+00  0.000E+00  1.03478E+03  2.279E+00  5.526E+01  6.148E-01  9.914E-01
   1   13    7     7     3    1.4684E+02  1.4524E+00   1.4539E+02  0.000E+00  0.000E+00  0.000E+00  1.02969E+03  2.271E+00  5.522E+01  5.585E-01  8.669E-01
   1   13    6     8     1    2.0245E+02  1.0331E+00   2.0141E+02  0.000E+00  0.000E+00  0.000E+00  1.02502E+03  3.149E+00  4.566E+01  4.653E-01  7.401E-01
   1   13    5     8     2    2.0141E+02  2.3774E-01   2.0118E+02  0.000E+00  0.000E+00  0.000E+00  1.01877E+03  3.145E+00  4.561E+01  4.648E-01  1.705E-01
   1   13    4     8     3    2.0118E+02 -2.2630E+00   2.0344E+02  0.000E+00  0.000E+00  0.000E+00  1.01253E+03  3.151E+00  4.569E+01  4.656E+00 -1.620E-01
   1   13    3     8     4    2.0344E+02 -3.4598E+00   2.0690E+02  0.000E+00  0.000E+00  0.000E+00  1.00629E+03  3.168E+00  4.593E+01  4.681E+00 -2.464E-01
   1   13    2     8     5    2.0690E+02 -2.6092E+00   2.0951E+02  0.000E+00  0.000E+00  0.000E+00  1.00006E+03  3.185E+00  4.619E+01  4.707E+00 -1.848E-01
   1   13    1     8     6    2.0951E+02 -2.0314E+00   2.1154E+02  0.000E+00  0.000E+00  0.000E+00  9.95074E+02  3.199E+00  4.638E+01  2.836E+00 -2.388E-01





UNSATURATED ZONE PACKAGE VOLUMETRIC BUDGET FOR  TIME STEP    30 STRESS PERIOD   19
  ------------------------------------------------------------------------------



     CUMULATIVE VOLUMES      L**3       RATES FOR THIS TIME STEP      L**3/T
     ------------------                 ------------------------

           IN:                                      IN:
           ---                                      ---
        INFILTRATION =   604567165.9845          INFILTRATION =          23.3175

          OUT:                                     OUT:
          ----                                     ----
              UZF ET =   532467935.6429                UZF ET =          23.3175
        UZF RECHARGE =    72024631.8946          UZF RECHARGE =       0.0000E+00

            IN - OUT =       74598.4470              IN - OUT =       0.0000E+00

          STORAGE:                                 STORAGE:
          --------                                 --------
      STORAGE CHANGE =       74592.4492        STORAGE CHANGE =       1.0646E-11

 PERCENT DISCREPANCY IS DIFFERENCE BETWEEN IN-OUT MINUS CHANGE IN STORAGE
 DIVIDED BY THE AVERAGE OF IN AND OUT TIMES 100

 PERCENT DISCREPANCY =           0.00     PERCENT DISCREPANCY =           0.00






1
  VOLUMETRIC BUDGET FOR AGRICULTURAL FIELDS AT  END OF TIME STEP   30, STRESS PERIOD  19
  ------------------------------------------------------------------------------

     CUMULATIVE VOLUMES      L**3       RATES FOR THIS TIME STEP      L**3/T
     ------------------                 ------------------------

           IN:                                      IN:
           ---                                      ---
           AG WELLS      =   564372480.0000             AG WELLS      =          22.4700
      DIVERSION SEGMENTS =           0.0000        DIVERSION SEGMENTS =           0.0000
           GW IRRIGATION =           0.0000             GW IRRIGATION =           0.0000
           SW IRRIGATION =           0.0000             SW IRRIGATION =           0.0000
        SYSTEM LOSSES GW =           0.0000          SYSTEM LOSSES GW =           0.0000
        SYSTEM LOSSES SW =           0.0000          SYSTEM LOSSES SW =           0.0000

                TOTAL IN =   564372480.0000                  TOTAL IN =          22.4700

          OUT:                                     OUT:
          ----                                     ----
           AG WELLS      =           0.0000             AG WELLS      =           0.0000
      DIVERSION SEGMENTS =           0.0000        DIVERSION SEGMENTS =           0.0000
           GW IRRIGATION =   564372480.0000             GW IRRIGATION =          22.4700
           SW IRRIGATION =           0.0000             SW IRRIGATION =           0.0000
        SYSTEM LOSSES GW =           0.0000          SYSTEM LOSSES GW =           0.0000
        SYSTEM LOSSES SW =           0.0000          SYSTEM LOSSES SW =           0.0000

               TOTAL OUT =   564372480.0000                 TOTAL OUT =          22.4700

                IN - OUT =           0.0000                  IN - OUT =           0.0000

     PERCENT DISCREPANCY =           0.00         PERCENT DISCREPANCY =           0.00



1
  VOLUMETRIC BUDGET FOR ENTIRE MODEL AT END OF TIME STEP   30, STRESS PERIOD  19
  ------------------------------------------------------------------------------

     CUMULATIVE VOLUMES      L**3       RATES FOR THIS TIME STEP      L**3/T
     ------------------                 ------------------------

           IN:                                      IN:
           ---                                      ---
             STORAGE     =   713083072.0000               STORAGE     =          20.7176
       CONSTANT HEAD     =           0.0000         CONSTANT HEAD     =           0.0000
     HEAD DEP BOUNDS     =    13536263.0000       HEAD DEP BOUNDS     =           0.2855
      STREAM LEAKAGE     =   596196608.0000        STREAM LEAKAGE     =          12.8238
        UZF RECHARGE     =    72024584.0000          UZF RECHARGE     =           0.0000
               GW ET     =           0.0000                 GW ET     =           0.0000
     SURFACE LEAKAGE     =           0.0000       SURFACE LEAKAGE     =           0.0000
           AG WELLS      =           0.0000             AG WELLS      =           0.0000

                TOTAL IN =  1394840576.0000                  TOTAL IN =          33.8269

          OUT:                                     OUT:
          ----                                     ----
             STORAGE     =   311709536.0000               STORAGE     =           0.3658
       CONSTANT HEAD     =           0.0000         CONSTANT HEAD     =           0.0000
     HEAD DEP BOUNDS     =    13978818.0000       HEAD DEP BOUNDS     =           0.2960
      STREAM LEAKAGE     =   488294016.0000        STREAM LEAKAGE     =          10.3633
        UZF RECHARGE     =           0.0000          UZF RECHARGE     =           0.0000
               GW ET     =    16486164.0000                 GW ET     =           0.3317
     SURFACE LEAKAGE     =           0.0000       SURFACE LEAKAGE     =           0.0000
           AG WELLS      =   564372480.0000             AG WELLS      =          22.4700

               TOTAL OUT =  1394840960.0000                 TOTAL OUT =          33.8269

                IN - OUT =        -384.0000                  IN - OUT =       1.9073E-05

     PERCENT DISCREPANCY =          -0.00         PERCENT DISCREPANCY =           0.00






         TIME SUMMARY AT END OF TIME STEP   30 IN STRESS PERIOD   19
                    SECONDS     MINUTES      HOURS       DAYS        YEARS
                    -----------------------------------------------------------
   TIME STEP LENGTH  87667.      1461.1      24.352      1.0147     2.77799E-03
 STRESS PERIOD TIME 2.63000E+06  43833.      730.56      30.440     8.33397E-02
         TOTAL TIME 4.74265E+07 7.90442E+05  13174.      548.92      1.5029    
1
1
                            STRESS PERIOD NO.   20, LENGTH =   2630000.    
                            -----------------------------------------------

                              NUMBER OF TIME STEPS =    30

                               MULTIPLIER FOR DELT =     1.000

                            INITIAL TIME STEP SIZE =   87666.66    

 REUSING NON-PARAMETER GHB CELLS FROM LAST STRESS PERIOD

      2 GHB CELLS

 REUSING STREAM SEGMENT DATA FROM LAST STRESS PERIOD



            AREAL INFILTRATION RATE
 READING ON UNIT   19 WITH FORMAT: (FREE)              

            1           2           3           4           5           6           7           8           9          10
 ........................................................................................................................
   1   1.0000E-10  2.0000E-10   0.000       0.000       0.000       0.000       0.000       0.000       0.000       0.000    
   2   2.0000E-10  1.0000E-10  2.0000E-10   0.000       0.000      8.0000E-10  8.0000E-10  5.0000E-10   0.000       0.000    
   3    0.000      5.0000E-10  1.0000E-10  1.0000E-10  8.0000E-10  8.0000E-10  5.0000E-10  5.0000E-10   0.000       0.000    
   4   8.0000E-10  5.0000E-10  1.0000E-10  1.0000E-10  1.0000E-10  1.0000E-10  1.0000E-10  1.0000E-10  2.0000E-10   0.000    
   5   8.0000E-10  5.0000E-10  1.0000E-10  1.0000E-10  1.0000E-10  1.0000E-10  1.0000E-10  1.0000E-10  1.0000E-10  1.0000E-10
   6   8.0000E-10  5.0000E-10  5.0000E-10  2.0000E-10  2.0000E-10  1.0000E-10  1.0000E-10  1.0000E-10  1.0000E-10  5.0000E-10
   7   8.0000E-10  5.0000E-10  5.0000E-10  2.0000E-10  2.0000E-10  1.0000E-10  1.0000E-10  2.0000E-10  2.0000E-10   0.000    
   8    0.000      5.0000E-10  5.0000E-10  2.0000E-10  2.0000E-10  1.0000E-10  1.0000E-10  2.0000E-10  5.0000E-10   0.000    
   9    0.000      5.0000E-10  5.0000E-10  2.0000E-10  2.0000E-10  1.0000E-10  1.0000E-10  2.0000E-10  5.0000E-10   0.000    
  10    0.000      5.0000E-10  5.0000E-10  2.0000E-10  2.0000E-10  1.0000E-10  1.0000E-10  2.0000E-10  5.0000E-10  8.0000E-10
  11    0.000      1.0000E-10  1.0000E-10  1.0000E-10  1.0000E-10  1.0000E-10  1.0000E-10  2.0000E-10  5.0000E-10   0.000    
  12   1.0000E-10  1.0000E-10  1.0000E-10  1.0000E-10  1.0000E-10  1.0000E-10  1.0000E-10  1.0000E-10  2.0000E-10   0.000    
  13   1.0000E-10  1.0000E-10  2.0000E-10  2.0000E-10  2.0000E-10  2.0000E-10  2.0000E-10  1.0000E-10  1.0000E-10   0.000    
  14    0.000      2.0000E-10  5.0000E-10  5.0000E-10  5.0000E-10  5.0000E-10  5.0000E-10  2.0000E-10  1.0000E-10   0.000    
  15    0.000       0.000      8.0000E-10  8.0000E-10  8.0000E-10  8.0000E-10   0.000       0.000       0.000       0.000    

                  ET RATE =  4.000000E-07

 USING ET EXTINCTION DEPTH FROM PREVIOUS STRESS PERIOD. CURRENT PERIOD IS:      20

 USING EXTINCTION WATER CONTENT FROM PREVIOUS STRESS PERIOD. CURRENT PERIOD IS:      20

 USING AIR ENTRY PRESSURE FROM PREVIOUS STRESS PERIOD. CURRENT PERIOD IS:      20

 USING ROOT PRESSURE HEAD FROM PREVIOUS STRESS PERIOD. CURRENT PERIOD IS:      20

 USING ROOT ACTIVITY FROM PREVIOUS STRESS PERIOD. CURRENT PERIOD IS:      20

 PROCESSING AG STRESS PERIOD DATA

 READING AG STRESS PERIOD DATA

 READING IRRIGATION WELL

 END PROCESSING AG STRESS PERIOD DATA OPTIONS
 
 SOLVING FOR HEAD 
                                                   Max.-Head-Change                         Max.-Flux-Residual
  Residual-Control   Outer-Iter.   Inner-Iter.     Column Row Layer    Maximum-Head-Change  Column Row Layer    Maximum-Flux-Residual          L2-NORM 
          0                 1           2             4    7     1      -0.1636772889E+00       4    7    1        -0.8558738582E+01      0.2005156079E+02
          0                 2           2             6    7     1       0.1326273321E-02       6    7    1         0.7272483446E-01      0.2000963892E+00
          0                 3           2             5    6     1      -0.1202937486E-01       4    7    1        -0.6482119903E+00      0.1580438579E+01
          0                 4           2             4    7     1      -0.9005313705E-02       5    7    1        -0.4981649693E+00      0.1187141462E+01
          0                 5           2             4    7     1      -0.7403240300E-02       5    7    1        -0.4092719451E+00      0.9800857549E+00
          0                 6           2             4    7     1      -0.6107233944E-02       5    7    1        -0.3376405849E+00      0.8081405886E+00
          0                 7           2             4    7     1      -0.5064525661E-02       5    7    1        -0.2799865893E+00      0.6702694651E+00
          0                 8           2             4    7     1      -0.4216514503E-02       5    7    1        -0.2331014897E+00      0.5580696450E+00
          0                 9           2             4    7     1      -0.3521622844E-02       5    7    1        -0.1946827485E+00      0.4661223425E+00
          0                10           2             4    7     1      -0.2948726018E-02       5    7    1        -0.1630094439E+00      0.3903088249E+00
                                                   Max.-Head-Change                         Max.-Flux-Residual
  Residual-Control   Outer-Iter.   Inner-Iter.     Column Row Layer    Maximum-Head-Change  Column Row Layer    Maximum-Flux-Residual          L2-NORM 
          0                11           2             4    7     1      -0.2474119511E-02       5    7    1        -0.1367707095E+00      0.3274974034E+00
          0                12           2             4    7     1      -0.2079413131E-02       5    7    1        -0.1149496300E+00      0.2752569771E+00
          0                13           2             4    7     1      -0.1750113290E-02       5    7    1        -0.9674478379E-01      0.2316710628E+00
          0                14           2             4    7     1      -0.1474643851E-02       5    7    1        -0.8151608942E-01      0.1952085689E+00
          0                15           2             4    7     1      -0.1243729325E-02       5    7    1        -0.6875068046E-01      0.1646426537E+00
          0                16           2             4    7     1      -0.1049815097E-02       5    7    1        -0.5803085919E-01      0.1389737546E+00
          0                17           2             4    7     1      -0.8867108623E-03       5    7    1        -0.4901436661E-01      0.1173827575E+00
          0                18           2             4    7     1      -0.7493632167E-03       5    7    1        -0.4142180190E-01      0.9920104723E-01
          0                19           2             4    7     1      -0.6335883772E-03       5    7    1        -0.3502185405E-01      0.8387490327E-01
          0                20           2             4    7     1      -0.5359102672E-03       5    7    1        -0.2962234178E-01      0.7094425513E-01
                                                   Max.-Head-Change                         Max.-Flux-Residual
  Residual-Control   Outer-Iter.   Inner-Iter.     Column Row Layer    Maximum-Head-Change  Column Row Layer    Maximum-Flux-Residual          L2-NORM 
          0                21           2             4    7     1      -0.4534461420E-03       5    7    1        -0.2506388772E-01      0.6002757968E-01
          0                22           2             4    7     1      -0.3837729728E-03       5    7    1        -0.2121253594E-01      0.5080410852E-01
          0                23           2             4    7     1      -0.3248810714E-03       5    7    1        -0.1795717902E-01      0.4300787469E-01
          0                24           2             4    7     1      -0.2750722562E-03       5    7    1        -0.1520393657E-01      0.3641404512E-01
          0                25           2             4    7     1      -0.2329640400E-03       5    7    1        -0.1287637462E-01      0.3083973305E-01
          0                26           2             4    7     1      -0.1973165643E-03       5    7    1        -0.1090595998E-01      0.2612058926E-01
          0                27           2             4    7     1      -0.1671434454E-03       5    7    1        -0.9238155927E-02      0.2212621244E-01
          0                28           2             4    7     1      -0.1415861970E-03       5    7    1        -0.7825507913E-02      0.1874286423E-01
          0                29           2             4    7     1      -0.1199539661E-03       5    7    1        -0.6629820738E-02      0.1587918555E-01
          0                30           1             4    7     1      -0.1016527464E-03       5    7    1        -0.5618259071E-02      0.1345650028E-01
          0                31           1             4    7     1      -0.8611912201E-04       5    7    1        -0.4759675504E-02      0.1140006133E-01

    ------------------------------------------------
       NWT REQUIRED           31 OUTER ITERATIONS 
       AND A TOTAL OF         60 INNER ITERATIONS.
    ------------------------------------------------

 OUTPUT CONTROL FOR STRESS PERIOD   20   TIME STEP    1
    PRINT BUDGET
    SAVE BUDGET
    SAVE BUDGET
    SAVE HEAD FOR ALL LAYERS
 UBDSV1 SAVING "         STORAGE" ON UNIT 102 AT TIME STEP 1, STRESS PERIOD 20
 UBDSV2 SAVING "   CONSTANT HEAD" ON UNIT 102 AT TIME STEP 1, STRESS PERIOD 20
 UBDSV1 SAVING "FLOW RIGHT FACE " ON UNIT 102 AT TIME STEP 1, STRESS PERIOD 20
 UBDSV1 SAVING "FLOW FRONT FACE " ON UNIT 102 AT TIME STEP 1, STRESS PERIOD 20

  HEAD DEP BOUNDS   PERIOD   20   STEP     1
 BOUNDARY      1   LAYER   1   ROW    13   COL     1   RATE   -0.295978    
 BOUNDARY      2   LAYER   1   ROW    14   COL     9   RATE    0.285505    



 STREAM LISTING     PERIOD     20   STEP        1

 LAYER ROW COL. STREAM  RCH.  FLOW INTO     FLOW TO   FLOW OUT OF   OVRLND.     DIRECT     STREAM       STREAM     STREAM     STREAM   STREAMBED  STREAMBED
                SEG.NO.  NO.  STRM. RCH.    AQUIFER    STRM. RCH.    RUNOFF     PRECIP       ET          HEAD       DEPTH      WIDTH   CONDCTNC.   GRADIENT

   1    1    1     1     1    5.4001E+01  3.5066E-01   5.3650E+01  0.000E+00  0.000E+00  0.000E+00  1.09450E+03  1.450E+00  1.751E+01  7.879E-02  1.483E+00
   1    2    2     1     2    5.3650E+01  5.4294E-01   5.3107E+01  0.000E+00  0.000E+00  0.000E+00  1.08950E+03  1.445E+00  1.745E+01  1.222E-01  1.482E+00
   1    3    3     1     3    5.3107E+01  4.6294E-01   5.2644E+01  0.000E+00  0.000E+00  0.000E+00  1.08386E+03  1.438E+00  1.739E+01  1.043E-01  1.479E+00
   1    3    4     1     4    5.2644E+01  4.2621E-01   5.2218E+01  0.000E+00  0.000E+00  0.000E+00  1.07884E+03  1.432E+00  1.733E+01  9.616E-02  1.477E+00
   1    4    5     2     1    5.0218E+01  3.7682E-01   4.9841E+01  0.000E+00  0.000E+00  0.000E+00  1.07376E+03  1.831E+00  1.200E+01  7.800E-02  1.610E+00
   1    5    6     2     2    4.9841E+01  2.8942E-01   4.9552E+01  0.000E+00  0.000E+00  0.000E+00  1.06833E+03  1.824E+00  1.200E+01  6.000E-02  1.608E+00
   1    6    6     2     3    4.9552E+01  2.8904E-01   4.9263E+01  0.000E+00  0.000E+00  0.000E+00  1.06361E+03  1.817E+00  1.200E+01  6.000E-02  1.606E+00
   1    7    6     2     4    4.9263E+01  2.8865E-01   4.8974E+01  0.000E+00  0.000E+00  0.000E+00  1.05889E+03  1.811E+00  1.200E+01  6.000E-02  1.604E+00
   1    8    6     2     5    4.8974E+01  2.8827E-01   4.8686E+01  0.000E+00  0.000E+00  0.000E+00  1.05416E+03  1.804E+00  1.200E+01  6.000E-02  1.601E+00
   1    3    5     3     1    2.0000E+00  2.8252E-01   1.7175E+00  0.000E+00  0.000E+00  0.000E+00  1.07555E+03  1.909E+00  9.636E+00  7.227E-02  1.955E+00
   1    3    6     3     2    1.7175E+00  2.4905E-01   1.4684E+00  0.000E+00  0.000E+00  0.000E+00  1.07264E+03  1.727E+00  8.909E+00  6.682E-02  1.864E+00
   1    3    7     3     3    1.4684E+00  1.9718E-01   1.2712E+00  0.000E+00  0.000E+00  0.000E+00  1.06987E+03  1.555E+00  8.218E+00  5.547E-02  1.777E+00
   1    4    8     3     4    1.2712E+00  2.2567E-01   1.0456E+00  0.000E+00  0.000E+00  0.000E+00  1.06682E+03  1.364E+00  7.455E+00  6.709E-02  1.682E+00
   1    5    8     3     5    1.0456E+00  1.5790E-01   8.8768E-01  0.000E+00  0.000E+00  0.000E+00  1.06362E+03  1.164E+00  6.655E+00  4.991E-02  1.582E+00
   1    6    8     3     6    8.8768E-01  5.5980E-02   8.3170E-01  0.000E+00  0.000E+00  0.000E+00  1.06158E+03  1.036E+00  6.145E+00  1.844E-02  1.518E+00
   1    5   10     4     1    1.0000E+01  9.0919E-02   9.9091E+00  0.000E+00  0.000E+00  0.000E+00  1.07836E+03  6.368E-01  1.000E+01  2.500E-02  1.212E+00
   1    5    9     4     2    9.9091E+00  1.8158E-01   9.7275E+00  0.000E+00  0.000E+00  0.000E+00  1.07154E+03  6.315E-01  1.000E+01  5.000E-02  1.211E+00
   1    6    8     4     3    9.7275E+00  1.2689E-01   9.6006E+00  0.000E+00  0.000E+00  0.000E+00  1.06381E+03  6.256E-01  1.000E+01  3.500E-02  1.209E+00
   1    6    8     5     1    1.0432E+01  2.2686E-01   1.0205E+01  0.000E+00  0.000E+00  0.000E+00  1.05868E+03  6.790E-01  1.542E+01  6.166E-02  1.226E+00
   1    7    7     5     2    1.0205E+01  2.7894E-01   9.9265E+00  0.000E+00  0.000E+00  0.000E+00  1.05417E+03  6.732E-01  1.519E+01  7.594E-02  1.224E+00
   1    8    7     5     3    9.9265E+00  1.9221E-01   9.7343E+00  0.000E+00  0.000E+00  0.000E+00  1.04992E+03  6.676E-01  1.497E+01  5.241E-02  1.223E+00
   1    8    6     5     4    9.7343E+00  1.3577E-01   9.5985E+00  0.000E+00  0.000E+00  0.000E+00  1.04691E+03  6.637E-01  1.482E+01  3.706E-02  1.221E+00
   1    9    6     6     1    5.8284E+01  3.0156E-01   5.7983E+01  0.000E+00  0.000E+00  0.000E+00  1.04475E+03  2.026E+00  1.200E+01  6.000E-02  1.675E+00
   1   10    7     6     2    5.7983E+01  3.0118E-01   5.7682E+01  0.000E+00  0.000E+00  0.000E+00  1.04020E+03  2.020E+00  1.200E+01  6.000E-02  1.673E+00
   1   11    7     6     3    5.7682E+01  3.0080E-01   5.7381E+01  0.000E+00  0.000E+00  0.000E+00  1.03565E+03  2.013E+00  1.200E+01  6.000E-02  1.671E+00
   1   12    7     6     4    5.7381E+01  3.0042E-01   5.7080E+01  0.000E+00  0.000E+00  0.000E+00  1.03110E+03  2.007E+00  1.200E+01  6.000E-02  1.669E+00
   1   13    7     6     5    5.7080E+01  1.9774E-02   5.7061E+01  0.000E+00  0.000E+00  0.000E+00  1.02791E+03  2.004E+00  1.200E+01  2.400E-02  2.746E-01
   1   14    9     7     1    1.5000E+02  1.3321E+00   1.4867E+02  0.000E+00  0.000E+00  0.000E+00  1.03987E+03  2.288E+00  5.529E+01  5.593E-01  7.939E-01
   1   13    8     7     2    1.4867E+02  1.8285E+00   1.4684E+02  0.000E+00  0.000E+00  0.000E+00  1.03478E+03  2.279E+00  5.526E+01  6.148E-01  9.914E-01
   1   13    7     7     3    1.4684E+02  1.4526E+00   1.4539E+02  0.000E+00  0.000E+00  0.000E+00  1.02969E+03  2.271E+00  5.522E+01  5.585E-01  8.670E-01
   1   13    6     8     1    2.0245E+02  1.0334E+00   2.0141E+02  0.000E+00  0.000E+00  0.000E+00  1.02502E+03  3.149E+00  4.566E+01  4.653E-01  7.403E-01
   1   13    5     8     2    2.0141E+02  2.3806E-01   2.0118E+02  0.000E+00  0.000E+00  0.000E+00  1.01877E+03  3.145E+00  4.561E+01  4.648E-01  1.707E-01
   1   13    4     8     3    2.0118E+02 -2.2507E+00   2.0343E+02  0.000E+00  0.000E+00  0.000E+00  1.01253E+03  3.151E+00  4.569E+01  4.656E+00 -1.611E-01
   1   13    3     8     4    2.0343E+02 -3.4343E+00   2.0686E+02  0.000E+00  0.000E+00  0.000E+00  1.00629E+03  3.168E+00  4.593E+01  4.681E+00 -2.446E-01
   1   13    2     8     5    2.0686E+02 -2.6034E+00   2.0946E+02  0.000E+00  0.000E+00  0.000E+00  1.00006E+03  3.185E+00  4.618E+01  4.706E+00 -1.844E-01
   1   13    1     8     6    2.0946E+02 -2.0289E+00   2.1149E+02  0.000E+00  0.000E+00  0.000E+00  9.95073E+02  3.198E+00  4.638E+01  2.836E+00 -2.385E-01



 UBDSV3 SAVING "           GW ET" ON UNIT  61 AT TIME STEP 1, STRESS PERIOD 20
 UBDSV3 SAVING "    UZF RECHARGE" ON UNIT  61 AT TIME STEP 1, STRESS PERIOD 20
 UBDSV3 SAVING " SURFACE LEAKAGE" ON UNIT  61 AT TIME STEP 1, STRESS PERIOD 20
 UBDSV3 SAVING "       HORT+DUNN" ON UNIT  61 AT TIME STEP 1, STRESS PERIOD 20
 UBDSV3 SAVING "  STORAGE CHANGE" ON UNIT  61 AT TIME STEP 1, STRESS PERIOD 20


UNSATURATED ZONE PACKAGE VOLUMETRIC BUDGET FOR  TIME STEP     1 STRESS PERIOD   20
  ------------------------------------------------------------------------------



     CUMULATIVE VOLUMES      L**3       RATES FOR THIS TIME STEP      L**3/T
     ------------------                 ------------------------

           IN:                                      IN:
           ---                                      ---
        INFILTRATION =   612297218.4804          INFILTRATION =          88.1755

          OUT:                                     OUT:
          ----                                     ----
              UZF ET =   537797382.5137                UZF ET =          60.7922
        UZF RECHARGE =    72024631.8946          UZF RECHARGE =       0.0000E+00

            IN - OUT =     2475204.0720              IN - OUT =          27.3833

          STORAGE:                                 STORAGE:
          --------                                 --------
      STORAGE CHANGE =     2475197.8914        STORAGE CHANGE =          27.3833

 PERCENT DISCREPANCY IS DIFFERENCE BETWEEN IN-OUT MINUS CHANGE IN STORAGE
 DIVIDED BY THE AVERAGE OF IN AND OUT TIMES 100

 PERCENT DISCREPANCY =           0.00     PERCENT DISCREPANCY =           0.00






 

        AG WELLS          PERIOD   20   STEP   1
 AG WELL      1   LAYER   1   ROW     6   COL     4   RATE    -14.5547    
 AG WELL      2   LAYER   1   ROW     6   COL     5   RATE    -14.5547    
 AG WELL      3   LAYER   1   ROW     7   COL     4   RATE    -14.5547    
 AG WELL      4   LAYER   1   ROW     7   COL     5   RATE    -14.5547    
 AG WELL      5   LAYER   1   ROW     8   COL     4   RATE    -14.5547    
 AG WELL      6   LAYER   1   ROW     8   COL     5   RATE    -14.5547    
 
 

        GW IRRIGATION     PERIOD   20   STEP   1
 AG WELL      1   ROW     6   COL     4   RATE     14.5547    
 AG WELL      2   ROW     6   COL     5   RATE     14.5547    
 AG WELL      3   ROW     7   COL     4   RATE     14.5547    
 AG WELL      4   ROW     7   COL     5   RATE     14.5547    
 AG WELL      5   ROW     8   COL     4   RATE     14.5547    
 AG WELL      6   ROW     8   COL     5   RATE     14.5547    
 
1
  VOLUMETRIC BUDGET FOR AGRICULTURAL FIELDS AT  END OF TIME STEP    1, STRESS PERIOD  20
  ------------------------------------------------------------------------------

     CUMULATIVE VOLUMES      L**3       RATES FOR THIS TIME STEP      L**3/T
     ------------------                 ------------------------

           IN:                                      IN:
           ---                                      ---
           AG WELLS      =   572028224.0000             AG WELLS      =          87.3280
      DIVERSION SEGMENTS =           0.0000        DIVERSION SEGMENTS =           0.0000
           GW IRRIGATION =           0.0000             GW IRRIGATION =           0.0000
           SW IRRIGATION =           0.0000             SW IRRIGATION =           0.0000
        SYSTEM LOSSES GW =           0.0000          SYSTEM LOSSES GW =           0.0000
        SYSTEM LOSSES SW =           0.0000          SYSTEM LOSSES SW =           0.0000

                TOTAL IN =   572028224.0000                  TOTAL IN =          87.3280

          OUT:                                     OUT:
          ----                                     ----
           AG WELLS      =           0.0000             AG WELLS      =           0.0000
      DIVERSION SEGMENTS =           0.0000        DIVERSION SEGMENTS =           0.0000
           GW IRRIGATION =   572028224.0000             GW IRRIGATION =          87.3280
           SW IRRIGATION =           0.0000             SW IRRIGATION =           0.0000
        SYSTEM LOSSES GW =           0.0000          SYSTEM LOSSES GW =           0.0000
        SYSTEM LOSSES SW =           0.0000          SYSTEM LOSSES SW =           0.0000

               TOTAL OUT =   572028224.0000                 TOTAL OUT =          87.3280

                IN - OUT =           0.0000                  IN - OUT =           0.0000

     PERCENT DISCREPANCY =           0.00         PERCENT DISCREPANCY =           0.00




 HEAD WILL BE SAVED ON UNIT   62 AT END OF TIME STEP    1, STRESS PERIOD   20
1
  VOLUMETRIC BUDGET FOR ENTIRE MODEL AT END OF TIME STEP    1, STRESS PERIOD  20
  ------------------------------------------------------------------------------

     CUMULATIVE VOLUMES      L**3       RATES FOR THIS TIME STEP      L**3/T
     ------------------                 ------------------------

           IN:                                      IN:
           ---                                      ---
             STORAGE     =   720615232.0000               STORAGE     =          85.9184
       CONSTANT HEAD     =           0.0000         CONSTANT HEAD     =           0.0000
     HEAD DEP BOUNDS     =    13561292.0000       HEAD DEP BOUNDS     =           0.2855
      STREAM LEAKAGE     =   597320896.0000        STREAM LEAKAGE     =          12.8248
        UZF RECHARGE     =    72024584.0000          UZF RECHARGE     =           0.0000
               GW ET     =           0.0000                 GW ET     =           0.0000
     SURFACE LEAKAGE     =           0.0000       SURFACE LEAKAGE     =           0.0000
           AG WELLS      =           0.0000             AG WELLS      =           0.0000

                TOTAL IN =  1403522048.0000                  TOTAL IN =          99.0288

          OUT:                                     OUT:
          ----                                     ----
             STORAGE     =   311741568.0000               STORAGE     =           0.3654
       CONSTANT HEAD     =           0.0000         CONSTANT HEAD     =           0.0000
     HEAD DEP BOUNDS     =    14004765.0000       HEAD DEP BOUNDS     =           0.2960
      STREAM LEAKAGE     =   489198496.0000        STREAM LEAKAGE     =          10.3173
        UZF RECHARGE     =           0.0000          UZF RECHARGE     =           0.0000
               GW ET     =    16549322.0000                 GW ET     =           0.7204
     SURFACE LEAKAGE     =           0.0000       SURFACE LEAKAGE     =           0.0000
           AG WELLS      =   572028224.0000             AG WELLS      =          87.3280

               TOTAL OUT =  1403522304.0000                 TOTAL OUT =          99.0271

                IN - OUT =        -256.0000                  IN - OUT =       1.6632E-03

     PERCENT DISCREPANCY =          -0.00         PERCENT DISCREPANCY =           0.00






         TIME SUMMARY AT END OF TIME STEP    1 IN STRESS PERIOD   20
                    SECONDS     MINUTES      HOURS       DAYS        YEARS
                    -----------------------------------------------------------
   TIME STEP LENGTH  87667.      1461.1      24.352      1.0147     2.77799E-03
 STRESS PERIOD TIME  87667.      1461.1      24.352      1.0147     2.77799E-03
         TOTAL TIME 4.75142E+07 7.91903E+05  13198.      549.93      1.5056    
1
 
 SOLVING FOR HEAD 
                                                   Max.-Head-Change                         Max.-Flux-Residual
  Residual-Control   Outer-Iter.   Inner-Iter.     Column Row Layer    Maximum-Head-Change  Column Row Layer    Maximum-Flux-Residual          L2-NORM 
          0                 1           2             5    8     1       0.4546929820E-01       5    8    1         0.2473453278E+01      0.5620827874E+01
          0                 2           2             4    7     1      -0.1889953801E+00       5    8    1        -0.1023812295E+02      0.2498167149E+02
          0                 3           2             4    7     1      -0.1767406945E-02       4    7    1        -0.9499051218E-01      0.2234650277E+00
          0                 4           2             4    7     1      -0.1190010618E-01       5    8    1        -0.6391592601E+00      0.1565139215E+01
          0                 5           2             4    7     1      -0.8928927624E-02       4    7    1        -0.4792273107E+00      0.1173825560E+01
          0                 6           2             4    7     1      -0.7372458913E-02       5    8    1        -0.3956929463E+00      0.9692372868E+00
          0                 7           2             4    7     1      -0.6080077640E-02       5    8    1        -0.3263235661E+00      0.7993211397E+00
          0                 8           2             4    7     1      -0.5042884855E-02       5    8    1        -0.2706539980E+00      0.6629598631E+00
          0                 9           2             4    7     1      -0.4198919693E-02       5    8    1        -0.2253558507E+00      0.5520032613E+00
          0                10           2             4    7     1      -0.3507191696E-02       5    8    1        -0.1882290602E+00      0.4610621674E+00
                                                   Max.-Head-Change                         Max.-Flux-Residual
  Residual-Control   Outer-Iter.   Inner-Iter.     Column Row Layer    Maximum-Head-Change  Column Row Layer    Maximum-Flux-Residual          L2-NORM 
          0                11           2             4    7     1      -0.2936827477E-02       5    8    1        -0.1576164389E+00      0.3860773568E+00
          0                12           2             4    7     1      -0.2464276940E-02       5    8    1        -0.1322539042E+00      0.3239524938E+00
          0                13           2             4    7     1      -0.2071234422E-02       5    8    1        -0.1111588795E+00      0.2722807832E+00
          0                14           2             4    7     1      -0.1743273867E-02       5    8    1        -0.9355703419E-01      0.2291655231E+00
          0                15           2             4    7     1      -0.1468931551E-02       5    8    1        -0.7883304631E-01      0.1930994992E+00
          0                16           2             4    7     1      -0.1238952919E-02       5    8    1        -0.6649017554E-01      0.1628659590E+00
          0                17           2             4    7     1      -0.1045794480E-02       5    8    1        -0.5612352627E-01      0.1374731216E+00
          0                18           2             4    7     1      -0.8833210812E-03       5    8    1        -0.4740379713E-01      0.1161143719E+00
          0                19           2             4    7     1      -0.7465072498E-03       5    8    1        -0.4006125007E-01      0.9812899376E-01
          0                20           2             4    7     1      -0.6311915673E-03       5    8    1        -0.3387252630E-01      0.8296987564E-01
                                                   Max.-Head-Change                         Max.-Flux-Residual
  Residual-Control   Outer-Iter.   Inner-Iter.     Column Row Layer    Maximum-Head-Change  Column Row Layer    Maximum-Flux-Residual          L2-NORM 
          0                21           2             4    7     1      -0.5338984123E-03       5    8    1        -0.2865107779E-01      0.7018007310E-01
          0                22           2             4    7     1      -0.4517438295E-03       5    8    1        -0.2424211452E-01      0.5938043198E-01
          0                23           2             4    7     1      -0.3823355064E-03       5    8    1        -0.2051723520E-01      0.5025643666E-01
          0                24           2             4    7     1      -0.3236553861E-03       5    8    1        -0.1736812681E-01      0.4254277728E-01
          0                25           2             4    7     1      -0.2740501328E-03       5    8    1        -0.1470605194E-01      0.3602209395E-01
          0                26           2             4    7     1      -0.2320896228E-03       5    8    1        -0.1245425456E-01      0.3050637459E-01
          0                27           2             4    7     1      -0.1965768753E-03       5    8    1        -0.1054849209E-01      0.2583825876E-01
          0                28           2             4    7     1      -0.1665118136E-03       5    8    1        -0.8935090289E-02      0.2188627273E-01
          0                29           2             4    7     1      -0.1410582617E-03       5    8    1        -0.7569171733E-02      0.1854049066E-01
          0                30           2             4    7     1      -0.1195107152E-03       5    8    1        -0.6412872651E-02      0.1570816596E-01
                                                   Max.-Head-Change                         Max.-Flux-Residual
  Residual-Control   Outer-Iter.   Inner-Iter.     Column Row Layer    Maximum-Head-Change  Column Row Layer    Maximum-Flux-Residual          L2-NORM 
          0                31           1             4    7     1      -0.1012611329E-03       5    8    1        -0.5433560211E-02      0.1330936546E-01
          0                32           1             4    7     1      -0.8580125884E-04       5    6    1        -0.4603959391E-02      0.1127727518E-01

    ------------------------------------------------
       NWT REQUIRED           32 OUTER ITERATIONS 
       AND A TOTAL OF         62 INNER ITERATIONS.
    ------------------------------------------------

 NO OUTPUT CONTROL FOR STRESS PERIOD   20   TIME STEP    2
 
 SOLVING FOR HEAD 
                                                   Max.-Head-Change                         Max.-Flux-Residual
  Residual-Control   Outer-Iter.   Inner-Iter.     Column Row Layer    Maximum-Head-Change  Column Row Layer    Maximum-Flux-Residual          L2-NORM 
          0                 1           2             5    8     1       0.5134001586E-01       5    8    1         0.2796638585E+01      0.6282828603E+01
          0                 2           2             4    7     1      -0.1891544664E+00       5    8    1        -0.1027043721E+02      0.2503524447E+02
          0                 3           2             4    7     1      -0.1756309779E-02       4    7    1        -0.9442486556E-01      0.2199743161E+00
          0                 4           2             4    7     1      -0.1190091728E-01       5    8    1        -0.6393199162E+00      0.1565403258E+01
          0                 5           2             4    7     1      -0.8928898583E-02       4    7    1        -0.4792245156E+00      0.1173806886E+01
          0                 6           2             4    7     1      -0.7372483685E-02       5    8    1        -0.3956937589E+00      0.9692386178E+00
          0                 7           2             4    7     1      -0.6080094659E-02       5    8    1        -0.3263235095E+00      0.7993210471E+00
          0                 8           2             4    7     1      -0.5042899211E-02       5    8    1        -0.2706540035E+00      0.6629598720E+00
          0                 9           2             4    7     1      -0.4198931629E-02       5    8    1        -0.2253558514E+00      0.5520032625E+00
          0                10           2             4    7     1      -0.3507201667E-02       5    8    1        -0.1882290611E+00      0.4610621688E+00
                                                   Max.-Head-Change                         Max.-Flux-Residual
  Residual-Control   Outer-Iter.   Inner-Iter.     Column Row Layer    Maximum-Head-Change  Column Row Layer    Maximum-Flux-Residual          L2-NORM 
          0                11           2             4    7     1      -0.2936835826E-02       5    8    1        -0.1576164396E+00      0.3860773579E+00
          0                12           2             4    7     1      -0.2464283946E-02       5    8    1        -0.1322539048E+00      0.3239524947E+00
          0                13           2             4    7     1      -0.2071240310E-02       5    8    1        -0.1111588800E+00      0.2722807840E+00
          0                14           2             4    7     1      -0.1743278823E-02       5    8    1        -0.9355703463E-01      0.2291655238E+00
          0                15           2             4    7     1      -0.1468935727E-02       5    8    1        -0.7883304667E-01      0.1930994997E+00
          0                16           2             4    7     1      -0.1238956441E-02       5    8    1        -0.6649017585E-01      0.1628659595E+00
          0                17           2             4    7     1      -0.1045797454E-02       5    8    1        -0.5612352655E-01      0.1374731220E+00
          0                18           2             4    7     1      -0.8833235923E-03       5    8    1        -0.4740379734E-01      0.1161143722E+00
          0                19           2             4    7     1      -0.7465093723E-03       5    8    1        -0.4006125027E-01      0.9812899406E-01
          0                20           2             4    7     1      -0.6311933618E-03       5    8    1        -0.3387252646E-01      0.8296987590E-01
                                                   Max.-Head-Change                         Max.-Flux-Residual
  Residual-Control   Outer-Iter.   Inner-Iter.     Column Row Layer    Maximum-Head-Change  Column Row Layer    Maximum-Flux-Residual          L2-NORM 
          0                21           2             4    7     1      -0.5338999304E-03       5    8    1        -0.2865107791E-01      0.7018007330E-01
          0                22           2             4    7     1      -0.4517451138E-03       5    8    1        -0.2424211463E-01      0.5938043215E-01
          0                23           2             4    7     1      -0.3823365931E-03       5    8    1        -0.2051723530E-01      0.5025643680E-01
          0                24           2             4    7     1      -0.3236563065E-03       5    8    1        -0.1736812688E-01      0.4254277738E-01
          0                25           2             4    7     1      -0.2740509120E-03       5    8    1        -0.1470605201E-01      0.3602209404E-01
          0                26           2             4    7     1      -0.2320902822E-03       5    8    1        -0.1245425464E-01      0.3050637465E-01
          0                27           2             4    7     1      -0.1965774343E-03       5    8    1        -0.1054849215E-01      0.2583825881E-01
          0                28           2             4    7     1      -0.1665122871E-03       5    8    1        -0.8935090312E-02      0.2188627277E-01
          0                29           2             4    7     1      -0.1410586625E-03       5    8    1        -0.7569171781E-02      0.1854049067E-01
          0                30           2             4    7     1      -0.1195110551E-03       5    8    1        -0.6412872695E-02      0.1570816600E-01
                                                   Max.-Head-Change                         Max.-Flux-Residual
  Residual-Control   Outer-Iter.   Inner-Iter.     Column Row Layer    Maximum-Head-Change  Column Row Layer    Maximum-Flux-Residual          L2-NORM 
          0                31           1             4    7     1      -0.1012614208E-03       5    8    1        -0.5433560243E-02      0.1330936549E-01
          0                32           1             4    7     1      -0.8580150293E-04       5    6    1        -0.4603959390E-02      0.1127727521E-01

    ------------------------------------------------
       NWT REQUIRED           32 OUTER ITERATIONS 
       AND A TOTAL OF         62 INNER ITERATIONS.
    ------------------------------------------------

 NO OUTPUT CONTROL FOR STRESS PERIOD   20   TIME STEP    3
 
 SOLVING FOR HEAD 
                                                   Max.-Head-Change                         Max.-Flux-Residual
  Residual-Control   Outer-Iter.   Inner-Iter.     Column Row Layer    Maximum-Head-Change  Column Row Layer    Maximum-Flux-Residual          L2-NORM 
          0                 1           2             5    8     1       0.5688702480E-01       5    8    1         0.3101720297E+01      0.6925412910E+01
          0                 2           2             4    7     1      -0.1893205568E+00       5    8    1        -0.1030094488E+02      0.2508706524E+02
          0                 3           2             4    7     1      -0.1744725348E-02       4    7    1        -0.9383045571E-01      0.2166824042E+00
          0                 4           2             4    7     1      -0.1190176470E-01       5    8    1        -0.6394715569E+00      0.1565657596E+01
          0                 5           2             4    7     1      -0.8928868783E-02       4    7    1        -0.4792204028E+00      0.1173788379E+01
          0                 6           2             4    7     1      -0.7372509970E-02       5    8    1        -0.3956945255E+00      0.9692394991E+00
          0                 7           2             4    7     1      -0.6080112777E-02       5    8    1        -0.3263234562E+00      0.7993206288E+00
          0                 8           2             4    7     1      -0.5042914488E-02       5    8    1        -0.2706540086E+00      0.6629596087E+00
          0                 9           2             4    7     1      -0.4198944333E-02       5    8    1        -0.2253558521E+00      0.5520030382E+00
          0                10           2             4    7     1      -0.3507212279E-02       5    8    1        -0.1882290620E+00      0.4610619824E+00
                                                   Max.-Head-Change                         Max.-Flux-Residual
  Residual-Control   Outer-Iter.   Inner-Iter.     Column Row Layer    Maximum-Head-Change  Column Row Layer    Maximum-Flux-Residual          L2-NORM 
          0                11           2             4    7     1      -0.2936844712E-02       5    8    1        -0.1576164403E+00      0.3860772022E+00
          0                12           2             4    7     1      -0.2464291402E-02       5    8    1        -0.1322539054E+00      0.3239523643E+00
          0                13           2             4    7     1      -0.2071246578E-02       5    8    1        -0.1111588805E+00      0.2722806746E+00
          0                14           2             4    7     1      -0.1743284098E-02       5    8    1        -0.9355703503E-01      0.2291654319E+00
          0                15           2             4    7     1      -0.1468940172E-02       5    8    1        -0.7883304702E-01      0.1930994224E+00
          0                16           2             4    7     1      -0.1238960190E-02       5    8    1        -0.6649017614E-01      0.1628658943E+00
          0                17           2             4    7     1      -0.1045800617E-02       5    8    1        -0.5612352678E-01      0.1374730670E+00
          0                18           2             4    7     1      -0.8833262653E-03       5    8    1        -0.4740379755E-01      0.1161143258E+00
          0                19           2             4    7     1      -0.7465116308E-03       5    8    1        -0.4006125043E-01      0.9812895487E-01
          0                20           2             4    7     1      -0.6311952720E-03       5    8    1        -0.3387252660E-01      0.8296984278E-01
                                                   Max.-Head-Change                         Max.-Flux-Residual
  Residual-Control   Outer-Iter.   Inner-Iter.     Column Row Layer    Maximum-Head-Change  Column Row Layer    Maximum-Flux-Residual          L2-NORM 
          0                21           2             4    7     1      -0.5339015456E-03       5    8    1        -0.2865107803E-01      0.7018004528E-01
          0                22           2             4    7     1      -0.4517464802E-03       5    8    1        -0.2424211473E-01      0.5938040847E-01
          0                23           2             4    7     1      -0.3823377503E-03       5    8    1        -0.2051723538E-01      0.5025641678E-01
          0                24           2             4    7     1      -0.3236572855E-03       5    8    1        -0.1736812695E-01      0.4254276043E-01
          0                25           2             4    7     1      -0.2740517412E-03       5    8    1        -0.1470605209E-01      0.3602207969E-01
          0                26           2             4    7     1      -0.2320909850E-03       5    8    1        -0.1245425467E-01      0.3050636250E-01
          0                27           2             4    7     1      -0.1965780287E-03       5    8    1        -0.1054849219E-01      0.2583824852E-01
          0                28           2             4    7     1      -0.1665127910E-03       5    8    1        -0.8935090351E-02      0.2188626407E-01
          0                29           2             4    7     1      -0.1410590894E-03       5    8    1        -0.7569171818E-02      0.1854048330E-01
          0                30           2             4    7     1      -0.1195114172E-03       5    8    1        -0.6412872711E-02      0.1570815976E-01
                                                   Max.-Head-Change                         Max.-Flux-Residual
  Residual-Control   Outer-Iter.   Inner-Iter.     Column Row Layer    Maximum-Head-Change  Column Row Layer    Maximum-Flux-Residual          L2-NORM 
          0                31           1             4    7     1      -0.1012617267E-03       5    8    1        -0.5433560264E-02      0.1330936020E-01
          0                32           1             4    7     1      -0.8580176235E-04       5    6    1        -0.4603959402E-02      0.1127727074E-01

    ------------------------------------------------
       NWT REQUIRED           32 OUTER ITERATIONS 
       AND A TOTAL OF         62 INNER ITERATIONS.
    ------------------------------------------------

 NO OUTPUT CONTROL FOR STRESS PERIOD   20   TIME STEP    4
 
 SOLVING FOR HEAD 
                                                   Max.-Head-Change                         Max.-Flux-Residual
  Residual-Control   Outer-Iter.   Inner-Iter.     Column Row Layer    Maximum-Head-Change  Column Row Layer    Maximum-Flux-Residual          L2-NORM 
          0                 1           2             5    8     1       0.6213278243E-01       5    8    1         0.3389966331E+01      0.7545454862E+01
          0                 2           2             4    7     1      -0.1894928678E+00       5    8    1        -0.1032976894E+02      0.2513719465E+02
          0                 3           2             4    7     1      -0.1732708266E-02       4    7    1        -0.9321158685E-01      0.2135699095E+00
          0                 4           2             4    7     1      -0.1190264443E-01       5    8    1        -0.6396147972E+00      0.1565903399E+01
          0                 5           2             4    7     1      -0.8928838359E-02       4    7    1        -0.4792173782E+00      0.1173770632E+01
          0                 6           2             4    7     1      -0.7372537642E-02       5    8    1        -0.3956952493E+00      0.9692404398E+00
          0                 7           2             4    7     1      -0.6080131905E-02       5    8    1        -0.3263234057E+00      0.7993202998E+00
          0                 8           2             4    7     1      -0.5042930613E-02       5    8    1        -0.2706540135E+00      0.6629594162E+00
          0                 9           2             4    7     1      -0.4198957741E-02       5    8    1        -0.2253558528E+00      0.5520028728E+00
          0                10           2             4    7     1      -0.3507223479E-02       5    8    1        -0.1882290627E+00      0.4610618451E+00
                                                   Max.-Head-Change                         Max.-Flux-Residual
  Residual-Control   Outer-Iter.   Inner-Iter.     Column Row Layer    Maximum-Head-Change  Column Row Layer    Maximum-Flux-Residual          L2-NORM 
          0                11           2             4    7     1      -0.2936854091E-02       5    8    1        -0.1576164409E+00      0.3860770875E+00
          0                12           2             4    7     1      -0.2464299272E-02       5    8    1        -0.1322539060E+00      0.3239522683E+00
          0                13           2             4    7     1      -0.2071253192E-02       5    8    1        -0.1111588810E+00      0.2722805940E+00
          0                14           2             4    7     1      -0.1743289665E-02       5    8    1        -0.9355703540E-01      0.2291653641E+00
          0                15           2             4    7     1      -0.1468944863E-02       5    8    1        -0.7883304733E-01      0.1930993653E+00
          0                16           2             4    7     1      -0.1238964146E-02       5    8    1        -0.6649017641E-01      0.1628658462E+00
          0                17           2             4    7     1      -0.1045803957E-02       5    8    1        -0.5612352699E-01      0.1374730265E+00
          0                18           2             4    7     1      -0.8833290861E-03       5    8    1        -0.4740379773E-01      0.1161142916E+00
          0                19           2             4    7     1      -0.7465140147E-03       5    8    1        -0.4006125057E-01      0.9812892598E-01
          0                20           2             4    7     1      -0.6311972877E-03       5    8    1        -0.3387252674E-01      0.8296981837E-01
                                                   Max.-Head-Change                         Max.-Flux-Residual
  Residual-Control   Outer-Iter.   Inner-Iter.     Column Row Layer    Maximum-Head-Change  Column Row Layer    Maximum-Flux-Residual          L2-NORM 
          0                21           2             4    7     1      -0.5339032507E-03       5    8    1        -0.2865107816E-01      0.7018002467E-01
          0                22           2             4    7     1      -0.4517479233E-03       5    8    1        -0.2424211485E-01      0.5938039103E-01
          0                23           2             4    7     1      -0.3823389710E-03       5    8    1        -0.2051723544E-01      0.5025640199E-01
          0                24           2             4    7     1      -0.3236583192E-03       5    8    1        -0.1736812703E-01      0.4254274794E-01
          0                25           2             4    7     1      -0.2740526165E-03       5    8    1        -0.1470605213E-01      0.3602206911E-01
          0                26           2             4    7     1      -0.2320917257E-03       5    8    1        -0.1245425474E-01      0.3050635356E-01
          0                27           2             4    7     1      -0.1965786570E-03       5    8    1        -0.1054849224E-01      0.2583824094E-01
          0                28           2             4    7     1      -0.1665133227E-03       5    8    1        -0.8935090384E-02      0.2188625765E-01
          0                29           2             4    7     1      -0.1410595397E-03       5    8    1        -0.7569171826E-02      0.1854047785E-01
          0                30           2             4    7     1      -0.1195117988E-03       5    8    1        -0.6412872756E-02      0.1570815516E-01
                                                   Max.-Head-Change                         Max.-Flux-Residual
  Residual-Control   Outer-Iter.   Inner-Iter.     Column Row Layer    Maximum-Head-Change  Column Row Layer    Maximum-Flux-Residual          L2-NORM 
          0                31           1             4    7     1      -0.1012620499E-03       5    8    1        -0.5433560274E-02      0.1330935628E-01
          0                32           1             4    7     1      -0.8580203674E-04       5    6    1        -0.4603959404E-02      0.1127726743E-01

    ------------------------------------------------
       NWT REQUIRED           32 OUTER ITERATIONS 
       AND A TOTAL OF         62 INNER ITERATIONS.
    ------------------------------------------------

 NO OUTPUT CONTROL FOR STRESS PERIOD   20   TIME STEP    5
 
 SOLVING FOR HEAD 
                                                   Max.-Head-Change                         Max.-Flux-Residual
  Residual-Control   Outer-Iter.   Inner-Iter.     Column Row Layer    Maximum-Head-Change  Column Row Layer    Maximum-Flux-Residual          L2-NORM 
          0                 1           2             5    8     1       0.6709826925E-01       5    8    1         0.3662560497E+01      0.8142092604E+01
          0                 2           2             4    7     1      -0.1896707489E+00       5    8    1        -0.1035702778E+02      0.2518570109E+02
          0                 3           2             4    7     1      -0.1720303845E-02       4    7    1        -0.9256955591E-01      0.2106204412E+00
          0                 4           2             4    7     1      -0.1190355312E-01       5    8    1        -0.6397502288E+00      0.1566140658E+01
          0                 5           2             4    7     1      -0.8928807412E-02       4    7    1        -0.4792142399E+00      0.1173753372E+01
          0                 6           2             4    7     1      -0.7372566585E-02       5    8    1        -0.3956959333E+00      0.9692412347E+00
          0                 7           2             4    7     1      -0.6080151962E-02       5    8    1        -0.3263233581E+00      0.7993198911E+00
          0                 8           2             4    7     1      -0.5042947517E-02       5    8    1        -0.2706540180E+00      0.6629591550E+00
          0                 9           2             4    7     1      -0.4198971796E-02       5    8    1        -0.2253558533E+00      0.5520026506E+00
          0                10           2             4    7     1      -0.3507235221E-02       5    8    1        -0.1882290635E+00      0.4610616605E+00
                                                   Max.-Head-Change                         Max.-Flux-Residual
  Residual-Control   Outer-Iter.   Inner-Iter.     Column Row Layer    Maximum-Head-Change  Column Row Layer    Maximum-Flux-Residual          L2-NORM 
          0                11           2             4    7     1      -0.2936863923E-02       5    8    1        -0.1576164415E+00      0.3860769332E+00
          0                12           2             4    7     1      -0.2464307522E-02       5    8    1        -0.1322539064E+00      0.3239521391E+00
          0                13           2             4    7     1      -0.2071260126E-02       5    8    1        -0.1111588814E+00      0.2722804856E+00
          0                14           2             4    7     1      -0.1743295501E-02       5    8    1        -0.9355703576E-01      0.2291652730E+00
          0                15           2             4    7     1      -0.1468949781E-02       5    8    1        -0.7883304761E-01      0.1930992887E+00
          0                16           2             4    7     1      -0.1238968294E-02       5    8    1        -0.6649017664E-01      0.1628657816E+00
          0                17           2             4    7     1      -0.1045807459E-02       5    8    1        -0.5612352721E-01      0.1374729720E+00
          0                18           2             4    7     1      -0.8833320435E-03       5    8    1        -0.4740379791E-01      0.1161142456E+00
          0                19           2             4    7     1      -0.7465165136E-03       5    8    1        -0.4006125074E-01      0.9812888715E-01
          0                20           2             4    7     1      -0.6311994007E-03       5    8    1        -0.3387252683E-01      0.8296978556E-01
                                                   Max.-Head-Change                         Max.-Flux-Residual
  Residual-Control   Outer-Iter.   Inner-Iter.     Column Row Layer    Maximum-Head-Change  Column Row Layer    Maximum-Flux-Residual          L2-NORM 
          0                21           2             4    7     1      -0.5339050381E-03       5    8    1        -0.2865107827E-01      0.7017999692E-01
          0                22           2             4    7     1      -0.4517494357E-03       5    8    1        -0.2424211494E-01      0.5938036757E-01
          0                23           2             4    7     1      -0.3823402512E-03       5    8    1        -0.2051723553E-01      0.5025638217E-01
          0                24           2             4    7     1      -0.3236594024E-03       5    8    1        -0.1736812706E-01      0.4254273114E-01
          0                25           2             4    7     1      -0.2740535345E-03       5    8    1        -0.1470605221E-01      0.3602205492E-01
          0                26           2             4    7     1      -0.2320925025E-03       5    8    1        -0.1245425478E-01      0.3050634152E-01
          0                27           2             4    7     1      -0.1965793149E-03       5    8    1        -0.1054849228E-01      0.2583823077E-01
          0                28           2             4    7     1      -0.1665138801E-03       5    8    1        -0.8935090416E-02      0.2188624903E-01
          0                29           2             4    7     1      -0.1410600123E-03       5    8    1        -0.7569171867E-02      0.1854047055E-01
          0                30           2             4    7     1      -0.1195121987E-03       5    8    1        -0.6412872767E-02      0.1570814896E-01
                                                   Max.-Head-Change                         Max.-Flux-Residual
  Residual-Control   Outer-Iter.   Inner-Iter.     Column Row Layer    Maximum-Head-Change  Column Row Layer    Maximum-Flux-Residual          L2-NORM 
          0                31           1             4    7     1      -0.1012623890E-03       5    8    1        -0.5433560307E-02      0.1330935105E-01
          0                32           1             4    7     1      -0.8580232402E-04       5    6    1        -0.4603959411E-02      0.1127726300E-01

    ------------------------------------------------
       NWT REQUIRED           32 OUTER ITERATIONS 
       AND A TOTAL OF         62 INNER ITERATIONS.
    ------------------------------------------------

 NO OUTPUT CONTROL FOR STRESS PERIOD   20   TIME STEP    6
 
 SOLVING FOR HEAD 
                                                   Max.-Head-Change                         Max.-Flux-Residual
  Residual-Control   Outer-Iter.   Inner-Iter.     Column Row Layer    Maximum-Head-Change  Column Row Layer    Maximum-Flux-Residual          L2-NORM 
          0                 1           2             5    8     1       0.7180278605E-01       5    8    1         0.3920590626E+01      0.8715484242E+01
          0                 2           2             4    7     1      -0.1898535517E+00       5    8    1        -0.1038283019E+02      0.2523265281E+02
          0                 3           2             4    7     1      -0.1707557260E-02       4    7    1        -0.9190693217E-01      0.2077985663E+00
          0                 4           2             4    7     1      -0.1190448747E-01       5    8    1        -0.6398783951E+00      0.1566357740E+01
          0                 5           2             4    7     1      -0.8928776044E-02       4    7    1        -0.4792110005E+00      0.1173729760E+01
          0                 6           2             4    7     1      -0.7372596681E-02       5    8    1        -0.3956965802E+00      0.9692360642E+00
          0                 7           2             4    7     1      -0.6080172865E-02       5    8    1        -0.3263233129E+00      0.7993146560E+00
          0                 8           2             4    7     1      -0.5042965130E-02       5    8    1        -0.2706540222E+00      0.6629549039E+00
          0                 9           2             4    7     1      -0.4198986443E-02       5    8    1        -0.2253558538E+00      0.5519991190E+00
          0                10           2             4    7     1      -0.3507247456E-02       5    8    1        -0.1882290641E+00      0.4610587199E+00
                                                   Max.-Head-Change                         Max.-Flux-Residual
  Residual-Control   Outer-Iter.   Inner-Iter.     Column Row Layer    Maximum-Head-Change  Column Row Layer    Maximum-Flux-Residual          L2-NORM 
          0                11           2             4    7     1      -0.2936874168E-02       5    8    1        -0.1576164420E+00      0.3860744769E+00
          0                12           2             4    7     1      -0.2464316118E-02       5    8    1        -0.1322539068E+00      0.3239500823E+00
          0                13           2             4    7     1      -0.2071267352E-02       5    8    1        -0.1111588817E+00      0.2722787598E+00
          0                14           2             4    7     1      -0.1743301583E-02       5    8    1        -0.9355703607E-01      0.2291638225E+00
          0                15           2             4    7     1      -0.1468954905E-02       5    8    1        -0.7883304788E-01      0.1930980679E+00
          0                16           2             4    7     1      -0.1238972617E-02       5    8    1        -0.6649017686E-01      0.1628647531E+00
          0                17           2             4    7     1      -0.1045811107E-02       5    8    1        -0.5612352738E-01      0.1374721049E+00
          0                18           2             4    7     1      -0.8833351246E-03       5    8    1        -0.4740379806E-01      0.1161135138E+00
          0                19           2             4    7     1      -0.7465191182E-03       5    8    1        -0.4006125087E-01      0.9812826887E-01
          0                20           2             4    7     1      -0.6312016027E-03       5    8    1        -0.3387252696E-01      0.8296926310E-01
                                                   Max.-Head-Change                         Max.-Flux-Residual
  Residual-Control   Outer-Iter.   Inner-Iter.     Column Row Layer    Maximum-Head-Change  Column Row Layer    Maximum-Flux-Residual          L2-NORM 
          0                21           2             4    7     1      -0.5339069005E-03       5    8    1        -0.2865107836E-01      0.7017955524E-01
          0                22           2             4    7     1      -0.4517510111E-03       5    8    1        -0.2424211501E-01      0.5937999473E-01
          0                23           2             4    7     1      -0.3823415850E-03       5    8    1        -0.2051723561E-01      0.5025606670E-01
          0                24           2             4    7     1      -0.3236605318E-03       5    8    1        -0.1736812712E-01      0.4254246373E-01
          0                25           2             4    7     1      -0.2740544899E-03       5    8    1        -0.1470605227E-01      0.3602182859E-01
          0                26           2             4    7     1      -0.2320933126E-03       5    8    1        -0.1245425481E-01      0.3050614991E-01
          0                27           2             4    7     1      -0.1965800009E-03       5    8    1        -0.1054849231E-01      0.2583806852E-01
          0                28           2             4    7     1      -0.1665144609E-03       5    8    1        -0.8935090450E-02      0.2188611355E-01
          0                29           2             4    7     1      -0.1410605046E-03       5    8    1        -0.7569171885E-02      0.1854035553E-01
          0                30           2             4    7     1      -0.1195126152E-03       5    8    1        -0.6412872788E-02      0.1570805049E-01
                                                   Max.-Head-Change                         Max.-Flux-Residual
  Residual-Control   Outer-Iter.   Inner-Iter.     Column Row Layer    Maximum-Head-Change  Column Row Layer    Maximum-Flux-Residual          L2-NORM 
          0                31           1             4    7     1      -0.1012627427E-03       5    8    1        -0.5433560317E-02      0.1330926757E-01
          0                32           1             4    7     1      -0.8580262286E-04       5    6    1        -0.4603959399E-02      0.1127719229E-01

    ------------------------------------------------
       NWT REQUIRED           32 OUTER ITERATIONS 
       AND A TOTAL OF         62 INNER ITERATIONS.
    ------------------------------------------------

 NO OUTPUT CONTROL FOR STRESS PERIOD   20   TIME STEP    7
 
 SOLVING FOR HEAD 
                                                   Max.-Head-Change                         Max.-Flux-Residual
  Residual-Control   Outer-Iter.   Inner-Iter.     Column Row Layer    Maximum-Head-Change  Column Row Layer    Maximum-Flux-Residual          L2-NORM 
          0                 1           2             5    8     1       0.7626422805E-01       5    8    1         0.4165065298E+01      0.9266296729E+01
          0                 2           2             4    7     1      -0.1900407218E+00       5    8    1        -0.1040727704E+02      0.2527811285E+02
          0                 3           2             4    7     1      -0.1694507146E-02       4    7    1        -0.9122591841E-01      0.2050811675E+00
          0                 4           2             4    7     1      -0.1190544462E-01       5    8    1        -0.6399898972E+00      0.1566570108E+01
          0                 5           2             4    7     1      -0.8928744346E-02       4    7    1        -0.4792076708E+00      0.1173708967E+01
          0                 6           2             4    7     1      -0.7372627841E-02       5    8    1        -0.3956917529E+00      0.9692326958E+00
          0                 7           2             4    7     1      -0.6080194552E-02       5    8    1        -0.3263188259E+00      0.7993109357E+00
          0                 8           2             4    7     1      -0.5042983400E-02       5    8    1        -0.2706503558E+00      0.6629519005E+00
          0                 9           2             4    7     1      -0.4199001635E-02       5    8    1        -0.2253528097E+00      0.5519966229E+00
          0                10           2             4    7     1      -0.3507260147E-02       5    8    1        -0.1882265293E+00      0.4610566416E+00
                                                   Max.-Head-Change                         Max.-Flux-Residual
  Residual-Control   Outer-Iter.   Inner-Iter.     Column Row Layer    Maximum-Head-Change  Column Row Layer    Maximum-Flux-Residual          L2-NORM 
          0                11           2             4    7     1      -0.2936884795E-02       5    8    1        -0.1576143246E+00      0.3860727408E+00
          0                12           2             4    7     1      -0.2464325036E-02       5    8    1        -0.1322521338E+00      0.3239486284E+00
          0                13           2             4    7     1      -0.2071274846E-02       5    8    1        -0.1111573940E+00      0.2722775399E+00
          0                14           2             4    7     1      -0.1743307891E-02       5    8    1        -0.9355578565E-01      0.2291627973E+00
          0                15           2             4    7     1      -0.1468960220E-02       5    8    1        -0.7883199555E-01      0.1930972051E+00
          0                16           2             4    7     1      -0.1238977100E-02       5    8    1        -0.6648929022E-01      0.1628640261E+00
          0                17           2             4    7     1      -0.1045814891E-02       5    8    1        -0.5612277963E-01      0.1374714915E+00
          0                18           2             4    7     1      -0.8833383208E-03       5    8    1        -0.4740316697E-01      0.1161129961E+00
          0                19           2             4    7     1      -0.7465218194E-03       5    8    1        -0.4006071789E-01      0.9812783189E-01
          0                20           2             4    7     1      -0.6312038868E-03       5    8    1        -0.3387207661E-01      0.8296889385E-01
                                                   Max.-Head-Change                         Max.-Flux-Residual
  Residual-Control   Outer-Iter.   Inner-Iter.     Column Row Layer    Maximum-Head-Change  Column Row Layer    Maximum-Flux-Residual          L2-NORM 
          0                21           2             4    7     1      -0.5339088323E-03       5    8    1        -0.2865069760E-01      0.7017924307E-01
          0                22           2             4    7     1      -0.4517526462E-03       5    8    1        -0.2424179300E-01      0.5937973001E-01
          0                23           2             4    7     1      -0.3823429685E-03       5    8    1        -0.2051696320E-01      0.5025584281E-01
          0                24           2             4    7     1      -0.3236617027E-03       5    8    1        -0.1736789662E-01      0.4254227473E-01
          0                25           2             4    7     1      -0.2740554816E-03       5    8    1        -0.1470585714E-01      0.3602166861E-01
          0                26           2             4    7     1      -0.2320941523E-03       5    8    1        -0.1245408962E-01      0.3050601448E-01
          0                27           2             4    7     1      -0.1965807123E-03       5    8    1        -0.1054835245E-01      0.2583795384E-01
          0                28           2             4    7     1      -0.1665150633E-03       5    8    1        -0.8934972016E-02      0.2188601451E-01
          0                29           2             4    7     1      -0.1410610149E-03       5    8    1        -0.7569071587E-02      0.1854027196E-01
          0                30           2             4    7     1      -0.1195130479E-03       5    8    1        -0.6412787832E-02      0.1570798073E-01
                                                   Max.-Head-Change                         Max.-Flux-Residual
  Residual-Control   Outer-Iter.   Inner-Iter.     Column Row Layer    Maximum-Head-Change  Column Row Layer    Maximum-Flux-Residual          L2-NORM 
          0                31           1             4    7     1      -0.1012631087E-03       5    8    1        -0.5433488353E-02      0.1330920856E-01
          0                32           1             4    7     1      -0.8580293363E-04       5    6    1        -0.4603897992E-02      0.1127714229E-01

    ------------------------------------------------
       NWT REQUIRED           32 OUTER ITERATIONS 
       AND A TOTAL OF         62 INNER ITERATIONS.
    ------------------------------------------------

 NO OUTPUT CONTROL FOR STRESS PERIOD   20   TIME STEP    8
 
 SOLVING FOR HEAD 
                                                   Max.-Head-Change                         Max.-Flux-Residual
  Residual-Control   Outer-Iter.   Inner-Iter.     Column Row Layer    Maximum-Head-Change  Column Row Layer    Maximum-Flux-Residual          L2-NORM 
          0                 1           2             5    8     1       0.8049863816E-01       5    8    1         0.4396888726E+01      0.9795430513E+01
          0                 2           2             4    7     1      -0.1902316833E+00       5    8    1        -0.1043045875E+02      0.2532214920E+02
          0                 3           2             4    7     1      -0.1681193585E-02       4    7    1        -0.9052878371E-01      0.2024487367E+00
          0                 4           2             4    7     1      -0.1190642161E-01       5    8    1        -0.6401040241E+00      0.1566778499E+01
          0                 5           2             4    7     1      -0.8928712389E-02       4    7    1        -0.4792042618E+00      0.1173691433E+01
          0                 6           2             4    7     1      -0.7372659943E-02       5    8    1        -0.3956923192E+00      0.9692314934E+00
          0                 7           2             4    7     1      -0.6080216935E-02       5    8    1        -0.3263187858E+00      0.7993090291E+00
          0                 8           2             4    7     1      -0.5043002253E-02       5    8    1        -0.2706503587E+00      0.6629503915E+00
          0                 9           2             4    7     1      -0.4199017313E-02       5    8    1        -0.2253528095E+00      0.5519953665E+00
          0                10           2             4    7     1      -0.3507273243E-02       5    8    1        -0.1882265293E+00      0.4610555957E+00
                                                   Max.-Head-Change                         Max.-Flux-Residual
  Residual-Control   Outer-Iter.   Inner-Iter.     Column Row Layer    Maximum-Head-Change  Column Row Layer    Maximum-Flux-Residual          L2-NORM 
          0                11           2             4    7     1      -0.2936895761E-02       5    8    1        -0.1576143246E+00      0.3860718671E+00
          0                12           2             4    7     1      -0.2464334237E-02       5    8    1        -0.1322521338E+00      0.3239478968E+00
          0                13           2             4    7     1      -0.2071282581E-02       5    8    1        -0.1111573940E+00      0.2722769260E+00
          0                14           2             4    7     1      -0.1743314400E-02       5    8    1        -0.9355578568E-01      0.2291622813E+00
          0                15           2             4    7     1      -0.1468965706E-02       5    8    1        -0.7883199555E-01      0.1930967709E+00
          0                16           2             4    7     1      -0.1238981726E-02       5    8    1        -0.6648929023E-01      0.1628636603E+00
          0                17           2             4    7     1      -0.1045818796E-02       5    8    1        -0.5612277966E-01      0.1374711830E+00
          0                18           2             4    7     1      -0.8833416194E-03       5    8    1        -0.4740316697E-01      0.1161127357E+00
          0                19           2             4    7     1      -0.7465246071E-03       5    8    1        -0.4006071789E-01      0.9812761196E-01
          0                20           2             4    7     1      -0.6312062435E-03       5    8    1        -0.3387207660E-01      0.8296870802E-01
                                                   Max.-Head-Change                         Max.-Flux-Residual
  Residual-Control   Outer-Iter.   Inner-Iter.     Column Row Layer    Maximum-Head-Change  Column Row Layer    Maximum-Flux-Residual          L2-NORM 
          0                21           2             4    7     1      -0.5339108262E-03       5    8    1        -0.2865069761E-01      0.7017908599E-01
          0                22           2             4    7     1      -0.4517543329E-03       5    8    1        -0.2424179300E-01      0.5937959715E-01
          0                23           2             4    7     1      -0.3823443962E-03       5    8    1        -0.2051696318E-01      0.5025573040E-01
          0                24           2             4    7     1      -0.3236629113E-03       5    8    1        -0.1736789661E-01      0.4254217962E-01
          0                25           2             4    7     1      -0.2740565051E-03       5    8    1        -0.1470585715E-01      0.3602158811E-01
          0                26           2             4    7     1      -0.2320950190E-03       5    8    1        -0.1245408962E-01      0.3050594632E-01
          0                27           2             4    7     1      -0.1965814458E-03       5    8    1        -0.1054835243E-01      0.2583789612E-01
          0                28           2             4    7     1      -0.1665156855E-03       5    8    1        -0.8934972002E-02      0.2188596565E-01
          0                29           2             4    7     1      -0.1410615415E-03       5    8    1        -0.7569071568E-02      0.1854023056E-01
          0                30           2             4    7     1      -0.1195134942E-03       5    8    1        -0.6412787818E-02      0.1570794568E-01
                                                   Max.-Head-Change                         Max.-Flux-Residual
  Residual-Control   Outer-Iter.   Inner-Iter.     Column Row Layer    Maximum-Head-Change  Column Row Layer    Maximum-Flux-Residual          L2-NORM 
          0                31           1             4    7     1      -0.1012634868E-03       5    8    1        -0.5433488352E-02      0.1330917886E-01
          0                32           1             4    7     1      -0.8580325413E-04       5    8    1        -0.4603896659E-02      0.1127711713E-01

    ------------------------------------------------
       NWT REQUIRED           32 OUTER ITERATIONS 
       AND A TOTAL OF         62 INNER ITERATIONS.
    ------------------------------------------------

 NO OUTPUT CONTROL FOR STRESS PERIOD   20   TIME STEP    9
 
 SOLVING FOR HEAD 
                                                   Max.-Head-Change                         Max.-Flux-Residual
  Residual-Control   Outer-Iter.   Inner-Iter.     Column Row Layer    Maximum-Head-Change  Column Row Layer    Maximum-Flux-Residual          L2-NORM 
          0                 1           2             5    8     1       0.8452151161E-01       5    8    1         0.4616932356E+01      0.1030386965E+02
          0                 2           2             4    7     1      -0.1904259449E+00       5    8    1        -0.1045246247E+02      0.2536481615E+02
          0                 3           2             4    7     1      -0.1667650811E-02       4    7    1        -0.8981749727E-01      0.1999120969E+00
          0                 4           2             4    7     1      -0.1190741593E-01       5    8    1        -0.6401993299E+00      0.1566978757E+01
          0                 5           2             4    7     1      -0.8928680254E-02       4    7    1        -0.4792007833E+00      0.1173673705E+01
          0                 6           2             4    7     1      -0.7372692907E-02       4    8    1        -0.3956867532E+00      0.9692296671E+00
          0                 7           2             4    7     1      -0.6080239958E-02       4    7    1        -0.3263182275E+00      0.7993066455E+00
          0                 8           2             4    7     1      -0.5043021641E-02       4    7    1        -0.2706495725E+00      0.6629484861E+00
          0                 9           2             4    7     1      -0.4199033436E-02       4    7    1        -0.2253521799E+00      0.5519937815E+00
          0                10           2             4    7     1      -0.3507286711E-02       4    7    1        -0.1882260032E+00      0.4610542761E+00
                                                   Max.-Head-Change                         Max.-Flux-Residual
  Residual-Control   Outer-Iter.   Inner-Iter.     Column Row Layer    Maximum-Head-Change  Column Row Layer    Maximum-Flux-Residual          L2-NORM 
          0                11           2             4    7     1      -0.2936907039E-02       4    7    1        -0.1576138852E+00      0.3860707648E+00
          0                12           2             4    7     1      -0.2464343701E-02       4    7    1        -0.1322517659E+00      0.3239469738E+00
          0                13           2             4    7     1      -0.2071290535E-02       4    7    1        -0.1111570853E+00      0.2722761515E+00
          0                14           2             4    7     1      -0.1743321094E-02       4    7    1        -0.9355552633E-01      0.2291616304E+00
          0                15           2             4    7     1      -0.1468971346E-02       4    7    1        -0.7883177738E-01      0.1930962230E+00
          0                16           2             4    7     1      -0.1238986484E-02       4    7    1        -0.6648910650E-01      0.1628631987E+00
          0                17           2             4    7     1      -0.1045822812E-02       4    7    1        -0.5612262477E-01      0.1374707937E+00
          0                18           2             4    7     1      -0.8833450117E-03       4    7    1        -0.4740303634E-01      0.1161124071E+00
          0                19           2             4    7     1      -0.7465274735E-03       4    7    1        -0.4006060763E-01      0.9812733450E-01
          0                20           2             4    7     1      -0.6312086673E-03       4    7    1        -0.3387198349E-01      0.8296847358E-01
                                                   Max.-Head-Change                         Max.-Flux-Residual
  Residual-Control   Outer-Iter.   Inner-Iter.     Column Row Layer    Maximum-Head-Change  Column Row Layer    Maximum-Flux-Residual          L2-NORM 
          0                21           2             4    7     1      -0.5339128766E-03       4    7    1        -0.2865061896E-01      0.7017888778E-01
          0                22           2             4    7     1      -0.4517560675E-03       4    7    1        -0.2424172651E-01      0.5937942951E-01
          0                23           2             4    7     1      -0.3823458645E-03       4    7    1        -0.2051690700E-01      0.5025558860E-01
          0                24           2             4    7     1      -0.3236641547E-03       4    7    1        -0.1736784909E-01      0.4254205962E-01
          0                25           2             4    7     1      -0.2740575571E-03       4    7    1        -0.1470581692E-01      0.3602148653E-01
          0                26           2             4    7     1      -0.2320959102E-03       4    7    1        -0.1245405563E-01      0.3050586034E-01
          0                27           2             4    7     1      -0.1965822005E-03       4    7    1        -0.1054832366E-01      0.2583782332E-01
          0                28           2             4    7     1      -0.1665163250E-03       4    7    1        -0.8934947673E-02      0.2188590399E-01
          0                29           2             4    7     1      -0.1410620828E-03       4    7    1        -0.7569050977E-02      0.1854017835E-01
          0                30           2             4    7     1      -0.1195139535E-03       4    7    1        -0.6412770406E-02      0.1570790147E-01
                                                   Max.-Head-Change                         Max.-Flux-Residual
  Residual-Control   Outer-Iter.   Inner-Iter.     Column Row Layer    Maximum-Head-Change  Column Row Layer    Maximum-Flux-Residual          L2-NORM 
          0                31           1             4    7     1      -0.1012638756E-03       4    7    1        -0.5433473590E-02      0.1330914139E-01
          0                32           1             4    7     1      -0.8580358340E-04       4    7    1        -0.4603884172E-02      0.1127708539E-01

    ------------------------------------------------
       NWT REQUIRED           32 OUTER ITERATIONS 
       AND A TOTAL OF         62 INNER ITERATIONS.
    ------------------------------------------------

 NO OUTPUT CONTROL FOR STRESS PERIOD   20   TIME STEP   10
 
 SOLVING FOR HEAD 
                                                   Max.-Head-Change                         Max.-Flux-Residual
  Residual-Control   Outer-Iter.   Inner-Iter.     Column Row Layer    Maximum-Head-Change  Column Row Layer    Maximum-Flux-Residual          L2-NORM 
          0                 1           2             5    8     1       0.8834671154E-01       5    8    1         0.4825975733E+01      0.1079252374E+02
          0                 2           2             5    7     1      -0.1906575202E+00       5    8    1        -0.1047336616E+02      0.2540617218E+02
          0                 3           2             4    7     1      -0.1653914628E-02       4    7    1        -0.8909410203E-01      0.1974663386E+00
          0                 4           2             4    7     1      -0.1190842493E-01       5    8    1        -0.6403012556E+00      0.1567177945E+01
          0                 5           2             4    7     1      -0.8928648020E-02       4    7    1        -0.4791972453E+00      0.1173659798E+01
          0                 6           2             4    7     1      -0.7372726638E-02       4    8    1        -0.3956871285E+00      0.9692306379E+00
          0                 7           2             4    7     1      -0.6080263555E-02       4    7    1        -0.3263182100E+00      0.7993065761E+00
          0                 8           2             4    7     1      -0.5043041510E-02       4    7    1        -0.2706495736E+00      0.6629484898E+00
          0                 9           2             4    7     1      -0.4199049958E-02       4    7    1        -0.2253521797E+00      0.5519937803E+00
          0                10           2             4    7     1      -0.3507300513E-02       4    7    1        -0.1882260031E+00      0.4610542753E+00
                                                   Max.-Head-Change                         Max.-Flux-Residual
  Residual-Control   Outer-Iter.   Inner-Iter.     Column Row Layer    Maximum-Head-Change  Column Row Layer    Maximum-Flux-Residual          L2-NORM 
          0                11           2             4    7     1      -0.2936918597E-02       4    7    1        -0.1576138852E+00      0.3860707642E+00
          0                12           2             4    7     1      -0.2464353398E-02       4    7    1        -0.1322517658E+00      0.3239469732E+00
          0                13           2             4    7     1      -0.2071298686E-02       4    7    1        -0.1111570853E+00      0.2722761510E+00
          0                14           2             4    7     1      -0.1743327955E-02       4    7    1        -0.9355552629E-01      0.2291616300E+00
          0                15           2             4    7     1      -0.1468977127E-02       4    7    1        -0.7883177734E-01      0.1930962227E+00
          0                16           2             4    7     1      -0.1238991360E-02       4    7    1        -0.6648910647E-01      0.1628631984E+00
          0                17           2             4    7     1      -0.1045826928E-02       4    7    1        -0.5612262474E-01      0.1374707935E+00
          0                18           2             4    7     1      -0.8833484880E-03       4    7    1        -0.4740303632E-01      0.1161124070E+00
          0                19           2             4    7     1      -0.7465304116E-03       4    7    1        -0.4006060761E-01      0.9812733436E-01
          0                20           2             4    7     1      -0.6312111513E-03       4    7    1        -0.3387198345E-01      0.8296847346E-01
                                                   Max.-Head-Change                         Max.-Flux-Residual
  Residual-Control   Outer-Iter.   Inner-Iter.     Column Row Layer    Maximum-Head-Change  Column Row Layer    Maximum-Flux-Residual          L2-NORM 
          0                21           2             4    7     1      -0.5339149774E-03       4    7    1        -0.2865061893E-01      0.7017888765E-01
          0                22           2             4    7     1      -0.4517578455E-03       4    7    1        -0.2424172650E-01      0.5937942942E-01
          0                23           2             4    7     1      -0.3823473688E-03       4    7    1        -0.2051690698E-01      0.5025558853E-01
          0                24           2             4    7     1      -0.3236654284E-03       4    7    1        -0.1736784909E-01      0.4254205953E-01
          0                25           2             4    7     1      -0.2740586356E-03       4    7    1        -0.1470581693E-01      0.3602148649E-01
          0                26           2             4    7     1      -0.2320968237E-03       4    7    1        -0.1245405564E-01      0.3050586034E-01
          0                27           2             4    7     1      -0.1965829746E-03       4    7    1        -0.1054832367E-01      0.2583782330E-01
          0                28           2             4    7     1      -0.1665169801E-03       4    7    1        -0.8934947643E-02      0.2188590395E-01
          0                29           2             4    7     1      -0.1410626382E-03       4    7    1        -0.7569050965E-02      0.1854017832E-01
          0                30           2             4    7     1      -0.1195144235E-03       4    7    1        -0.6412770387E-02      0.1570790142E-01
                                                   Max.-Head-Change                         Max.-Flux-Residual
  Residual-Control   Outer-Iter.   Inner-Iter.     Column Row Layer    Maximum-Head-Change  Column Row Layer    Maximum-Flux-Residual          L2-NORM 
          0                31           1             4    7     1      -0.1012642740E-03       4    7    1        -0.5433473593E-02      0.1330914142E-01
          0                32           1             4    7     1      -0.8580392118E-04       4    7    1        -0.4603884186E-02      0.1127708549E-01

    ------------------------------------------------
       NWT REQUIRED           32 OUTER ITERATIONS 
       AND A TOTAL OF         62 INNER ITERATIONS.
    ------------------------------------------------

 NO OUTPUT CONTROL FOR STRESS PERIOD   20   TIME STEP   11
 
 SOLVING FOR HEAD 
                                                   Max.-Head-Change                         Max.-Flux-Residual
  Residual-Control   Outer-Iter.   Inner-Iter.     Column Row Layer    Maximum-Head-Change  Column Row Layer    Maximum-Flux-Residual          L2-NORM 
          0                 1           2             5    8     1       0.9198700965E-01       5    8    1         0.5024737694E+01      0.1126237054E+02
          0                 2           2             5    7     1      -0.1909406514E+00       5    8    1        -0.1049324171E+02      0.2544627054E+02
          0                 3           2             4    7     1      -0.1640013873E-02       4    7    1        -0.8836024646E-01      0.1951125507E+00
          0                 4           2             4    7     1      -0.1190944648E-01       5    8    1        -0.6403981778E+00      0.1567371058E+01
          0                 5           2             4    7     1      -0.8928615748E-02       4    7    1        -0.4791936557E+00      0.1173646314E+01
          0                 6           2             4    7     1      -0.7372761061E-02       4    8    1        -0.3956874944E+00      0.9692315794E+00
          0                 7           2             4    7     1      -0.6080287671E-02       4    7    1        -0.3263181923E+00      0.7993065089E+00
          0                 8           2             4    7     1      -0.5043061814E-02       4    7    1        -0.2706495748E+00      0.6629484934E+00
          0                 9           2             4    7     1      -0.4199066843E-02       4    7    1        -0.2253521795E+00      0.5519937791E+00
          0                10           2             4    7     1      -0.3507314618E-02       4    7    1        -0.1882260030E+00      0.4610542747E+00
                                                   Max.-Head-Change                         Max.-Flux-Residual
  Residual-Control   Outer-Iter.   Inner-Iter.     Column Row Layer    Maximum-Head-Change  Column Row Layer    Maximum-Flux-Residual          L2-NORM 
          0                11           2             4    7     1      -0.2936930407E-02       4    7    1        -0.1576138851E+00      0.3860707636E+00
          0                12           2             4    7     1      -0.2464363309E-02       4    7    1        -0.1322517658E+00      0.3239469728E+00
          0                13           2             4    7     1      -0.2071307015E-02       4    7    1        -0.1111570853E+00      0.2722761507E+00
          0                14           2             4    7     1      -0.1743334966E-02       4    7    1        -0.9355552627E-01      0.2291616297E+00
          0                15           2             4    7     1      -0.1468983035E-02       4    7    1        -0.7883177731E-01      0.1930962224E+00
          0                16           2             4    7     1      -0.1238996342E-02       4    7    1        -0.6648910644E-01      0.1628631982E+00
          0                17           2             4    7     1      -0.1045831133E-02       4    7    1        -0.5612262473E-01      0.1374707933E+00
          0                18           2             4    7     1      -0.8833520399E-03       4    7    1        -0.4740303629E-01      0.1161124068E+00
          0                19           2             4    7     1      -0.7465334134E-03       4    7    1        -0.4006060761E-01      0.9812733421E-01
          0                20           2             4    7     1      -0.6312136901E-03       4    7    1        -0.3387198347E-01      0.8296847333E-01
                                                   Max.-Head-Change                         Max.-Flux-Residual
  Residual-Control   Outer-Iter.   Inner-Iter.     Column Row Layer    Maximum-Head-Change  Column Row Layer    Maximum-Flux-Residual          L2-NORM 
          0                21           2             4    7     1      -0.5339171243E-03       4    7    1        -0.2865061892E-01      0.7017888754E-01
          0                22           2             4    7     1      -0.4517596622E-03       4    7    1        -0.2424172650E-01      0.5937942933E-01
          0                23           2             4    7     1      -0.3823489062E-03       4    7    1        -0.2051690697E-01      0.5025558845E-01
          0                24           2             4    7     1      -0.3236667299E-03       4    7    1        -0.1736784909E-01      0.4254205949E-01
          0                25           2             4    7     1      -0.2740597379E-03       4    7    1        -0.1470581694E-01      0.3602148644E-01
          0                26           2             4    7     1      -0.2320977570E-03       4    7    1        -0.1245405564E-01      0.3050586026E-01
          0                27           2             4    7     1      -0.1965837651E-03       4    7    1        -0.1054832367E-01      0.2583782324E-01
          0                28           2             4    7     1      -0.1665176493E-03       4    7    1        -0.8934947651E-02      0.2188590392E-01
          0                29           2             4    7     1      -0.1410632060E-03       4    7    1        -0.7569050998E-02      0.1854017830E-01
          0                30           2             4    7     1      -0.1195149042E-03       4    7    1        -0.6412770386E-02      0.1570790141E-01
                                                   Max.-Head-Change                         Max.-Flux-Residual
  Residual-Control   Outer-Iter.   Inner-Iter.     Column Row Layer    Maximum-Head-Change  Column Row Layer    Maximum-Flux-Residual          L2-NORM 
          0                31           1             4    7     1      -0.1012646813E-03       4    7    1        -0.5433473584E-02      0.1330914135E-01
          0                32           1             4    7     1      -0.8580426626E-04       4    7    1        -0.4603884175E-02      0.1127708536E-01

    ------------------------------------------------
       NWT REQUIRED           32 OUTER ITERATIONS 
       AND A TOTAL OF         62 INNER ITERATIONS.
    ------------------------------------------------

 NO OUTPUT CONTROL FOR STRESS PERIOD   20   TIME STEP   12
 
 SOLVING FOR HEAD 
                                                   Max.-Head-Change                         Max.-Flux-Residual
  Residual-Control   Outer-Iter.   Inner-Iter.     Column Row Layer    Maximum-Head-Change  Column Row Layer    Maximum-Flux-Residual          L2-NORM 
          0                 1           2             5    8     1       0.9545463302E-01       5    8    1         0.5213904007E+01      0.1171436454E+02
          0                 2           2             5    7     1      -0.1912178700E+00       5    8    1        -0.1051215770E+02      0.2548516539E+02
          0                 3           2             4    7     1      -0.1625977963E-02       4    7    1        -0.8761762093E-01      0.1928449003E+00
          0                 4           2             4    7     1      -0.1191047843E-01       5    8    1        -0.6404904302E+00      0.1567558368E+01
          0                 5           2             4    7     1      -0.8928583501E-02       4    7    1        -0.4791900231E+00      0.1173633235E+01
          0                 6           2             4    7     1      -0.7372796098E-02       4    8    1        -0.3956878511E+00      0.9692324928E+00
          0                 7           2             4    7     1      -0.6080312253E-02       4    7    1        -0.3263181744E+00      0.7993064438E+00
          0                 8           2             4    7     1      -0.5043082505E-02       4    7    1        -0.2706495759E+00      0.6629484970E+00
          0                 9           2             4    7     1      -0.4199084051E-02       4    7    1        -0.2253521793E+00      0.5519937781E+00
          0                10           2             4    7     1      -0.3507328992E-02       4    7    1        -0.1882260030E+00      0.4610542741E+00
                                                   Max.-Head-Change                         Max.-Flux-Residual
  Residual-Control   Outer-Iter.   Inner-Iter.     Column Row Layer    Maximum-Head-Change  Column Row Layer    Maximum-Flux-Residual          L2-NORM 
          0                11           2             4    7     1      -0.2936942444E-02       4    7    1        -0.1576138850E+00      0.3860707631E+00
          0                12           2             4    7     1      -0.2464373408E-02       4    7    1        -0.1322517657E+00      0.3239469723E+00
          0                13           2             4    7     1      -0.2071315504E-02       4    7    1        -0.1111570852E+00      0.2722761503E+00
          0                14           2             4    7     1      -0.1743342110E-02       4    7    1        -0.9355552622E-01      0.2291616294E+00
          0                15           2             4    7     1      -0.1468989055E-02       4    7    1        -0.7883177731E-01      0.1930962222E+00
          0                16           2             4    7     1      -0.1239001420E-02       4    7    1        -0.6648910642E-01      0.1628631980E+00
          0                17           2             4    7     1      -0.1045835420E-02       4    7    1        -0.5612262472E-01      0.1374707931E+00
          0                18           2             4    7     1      -0.8833556602E-03       4    7    1        -0.4740303628E-01      0.1161124066E+00
          0                19           2             4    7     1      -0.7465364731E-03       4    7    1        -0.4006060759E-01      0.9812733408E-01
          0                20           2             4    7     1      -0.6312162768E-03       4    7    1        -0.3387198345E-01      0.8296847320E-01
                                                   Max.-Head-Change                         Max.-Flux-Residual
  Residual-Control   Outer-Iter.   Inner-Iter.     Column Row Layer    Maximum-Head-Change  Column Row Layer    Maximum-Flux-Residual          L2-NORM 
          0                21           2             4    7     1      -0.5339193128E-03       4    7    1        -0.2865061891E-01      0.7017888746E-01
          0                22           2             4    7     1      -0.4517615135E-03       4    7    1        -0.2424172648E-01      0.5937942925E-01
          0                23           2             4    7     1      -0.3823504737E-03       4    7    1        -0.2051690696E-01      0.5025558837E-01
          0                24           2             4    7     1      -0.3236680562E-03       4    7    1        -0.1736784907E-01      0.4254205943E-01
          0                25           2             4    7     1      -0.2740608609E-03       4    7    1        -0.1470581692E-01      0.3602148638E-01
          0                26           2             4    7     1      -0.2320987081E-03       4    7    1        -0.1245405562E-01      0.3050586020E-01
          0                27           2             4    7     1      -0.1965845708E-03       4    7    1        -0.1054832366E-01      0.2583782322E-01
          0                28           2             4    7     1      -0.1665183321E-03       4    7    1        -0.8934947646E-02      0.2188590388E-01
          0                29           2             4    7     1      -0.1410637837E-03       4    7    1        -0.7569050968E-02      0.1854017826E-01
          0                30           2             4    7     1      -0.1195153937E-03       4    7    1        -0.6412770381E-02      0.1570790139E-01
                                                   Max.-Head-Change                         Max.-Flux-Residual
  Residual-Control   Outer-Iter.   Inner-Iter.     Column Row Layer    Maximum-Head-Change  Column Row Layer    Maximum-Flux-Residual          L2-NORM 
          0                31           1             4    7     1      -0.1012650968E-03       4    7    1        -0.5433473598E-02      0.1330914134E-01
          0                32           1             4    7     1      -0.8580461743E-04       4    7    1        -0.4603884161E-02      0.1127708535E-01

    ------------------------------------------------
       NWT REQUIRED           32 OUTER ITERATIONS 
       AND A TOTAL OF         62 INNER ITERATIONS.
    ------------------------------------------------

 NO OUTPUT CONTROL FOR STRESS PERIOD   20   TIME STEP   13
 
 SOLVING FOR HEAD 
                                                   Max.-Head-Change                         Max.-Flux-Residual
  Residual-Control   Outer-Iter.   Inner-Iter.     Column Row Layer    Maximum-Head-Change  Column Row Layer    Maximum-Flux-Residual          L2-NORM 
          0                 1           2             5    8     1       0.9876057956E-01       5    8    1         0.5394092994E+01      0.1214941535E+02
          0                 2           2             5    7     1      -0.1914891786E+00       5    8    1        -0.1053017596E+02      0.2552290452E+02
          0                 3           2             4    7     1      -0.1611835160E-02       4    7    1        -0.8686784451E-01      0.1906583777E+00
          0                 4           2             4    7     1      -0.1191151867E-01       5    8    1        -0.6405783133E+00      0.1567740115E+01
          0                 5           2             4    7     1      -0.8928551337E-02       4    7    1        -0.4791863551E+00      0.1173620543E+01
          0                 6           2             4    7     1      -0.7372831674E-02       4    8    1        -0.3956881989E+00      0.9692333792E+00
          0                 7           2             4    7     1      -0.6080337246E-02       4    7    1        -0.3263181563E+00      0.7993063807E+00
          0                 8           2             4    7     1      -0.5043103541E-02       4    7    1        -0.2706495770E+00      0.6629485005E+00
          0                 9           2             4    7     1      -0.4199101544E-02       4    7    1        -0.2253521792E+00      0.5519937771E+00
          0                10           2             4    7     1      -0.3507343606E-02       4    7    1        -0.1882260029E+00      0.4610542735E+00
                                                   Max.-Head-Change                         Max.-Flux-Residual
  Residual-Control   Outer-Iter.   Inner-Iter.     Column Row Layer    Maximum-Head-Change  Column Row Layer    Maximum-Flux-Residual          L2-NORM 
          0                11           2             4    7     1      -0.2936954680E-02       4    7    1        -0.1576138850E+00      0.3860707626E+00
          0                12           2             4    7     1      -0.2464383676E-02       4    7    1        -0.1322517657E+00      0.3239469720E+00
          0                13           2             4    7     1      -0.2071324134E-02       4    7    1        -0.1111570852E+00      0.2722761500E+00
          0                14           2             4    7     1      -0.1743349374E-02       4    7    1        -0.9355552619E-01      0.2291616291E+00
          0                15           2             4    7     1      -0.1468995176E-02       4    7    1        -0.7883177727E-01      0.1930962220E+00
          0                16           2             4    7     1      -0.1239006582E-02       4    7    1        -0.6648910638E-01      0.1628631978E+00
          0                17           2             4    7     1      -0.1045839777E-02       4    7    1        -0.5612262470E-01      0.1374707929E+00
          0                18           2             4    7     1      -0.8833593406E-03       4    7    1        -0.4740303626E-01      0.1161124065E+00
          0                19           2             4    7     1      -0.7465395835E-03       4    7    1        -0.4006060758E-01      0.9812733395E-01
          0                20           2             4    7     1      -0.6312189067E-03       4    7    1        -0.3387198344E-01      0.8296847311E-01
                                                   Max.-Head-Change                         Max.-Flux-Residual
  Residual-Control   Outer-Iter.   Inner-Iter.     Column Row Layer    Maximum-Head-Change  Column Row Layer    Maximum-Flux-Residual          L2-NORM 
          0                21           2             4    7     1      -0.5339215369E-03       4    7    1        -0.2865061890E-01      0.7017888739E-01
          0                22           2             4    7     1      -0.4517633961E-03       4    7    1        -0.2424172649E-01      0.5937942919E-01
          0                23           2             4    7     1      -0.3823520665E-03       4    7    1        -0.2051690695E-01      0.5025558832E-01
          0                24           2             4    7     1      -0.3236694049E-03       4    7    1        -0.1736784906E-01      0.4254205936E-01
          0                25           2             4    7     1      -0.2740620028E-03       4    7    1        -0.1470581691E-01      0.3602148635E-01
          0                26           2             4    7     1      -0.2320996748E-03       4    7    1        -0.1245405561E-01      0.3050586018E-01
          0                27           2             4    7     1      -0.1965853899E-03       4    7    1        -0.1054832367E-01      0.2583782318E-01
          0                28           2             4    7     1      -0.1665190258E-03       4    7    1        -0.8934947651E-02      0.2188590387E-01
          0                29           2             4    7     1      -0.1410643717E-03       4    7    1        -0.7569050982E-02      0.1854017825E-01
          0                30           2             4    7     1      -0.1195158919E-03       4    7    1        -0.6412770384E-02      0.1570790137E-01
                                                   Max.-Head-Change                         Max.-Flux-Residual
  Residual-Control   Outer-Iter.   Inner-Iter.     Column Row Layer    Maximum-Head-Change  Column Row Layer    Maximum-Flux-Residual          L2-NORM 
          0                31           1             4    7     1      -0.1012655187E-03       4    7    1        -0.5433473592E-02      0.1330914132E-01
          0                32           1             4    7     1      -0.8580497516E-04       4    7    1        -0.4603884159E-02      0.1127708534E-01

    ------------------------------------------------
       NWT REQUIRED           32 OUTER ITERATIONS 
       AND A TOTAL OF         62 INNER ITERATIONS.
    ------------------------------------------------

 NO OUTPUT CONTROL FOR STRESS PERIOD   20   TIME STEP   14
 
 SOLVING FOR HEAD 
                                                   Max.-Head-Change                         Max.-Flux-Residual
  Residual-Control   Outer-Iter.   Inner-Iter.     Column Row Layer    Maximum-Head-Change  Column Row Layer    Maximum-Flux-Residual          L2-NORM 
          0                 1           2             5    8     1       0.1019150274E+00       5    8    1         0.5565874908E+01      0.1256839978E+02
          0                 2           2             5    7     1      -0.1917546705E+00       5    8    1        -0.1054735351E+02      0.2555953627E+02
          0                 3           2             4    7     1      -0.1597609827E-02       4    7    1        -0.8611232155E-01      0.1885481551E+00
          0                 4           2             4    7     1      -0.1191256542E-01       5    8    1        -0.6406621046E+00      0.1567916541E+01
          0                 5           2             4    7     1      -0.8928519307E-02       4    7    1        -0.4791826589E+00      0.1173608223E+01
          0                 6           2             4    7     1      -0.7372867723E-02       5    6    1        -0.3956885849E+00      0.9692342398E+00
          0                 7           2             4    7     1      -0.6080362604E-02       4    7    1        -0.3263181380E+00      0.7993063195E+00
          0                 8           2             4    7     1      -0.5043124881E-02       4    7    1        -0.2706495782E+00      0.6629485040E+00
          0                 9           2             4    7     1      -0.4199119291E-02       4    7    1        -0.2253521790E+00      0.5519937762E+00
          0                10           2             4    7     1      -0.3507358430E-02       4    7    1        -0.1882260029E+00      0.4610542730E+00
                                                   Max.-Head-Change                         Max.-Flux-Residual
  Residual-Control   Outer-Iter.   Inner-Iter.     Column Row Layer    Maximum-Head-Change  Column Row Layer    Maximum-Flux-Residual          L2-NORM 
          0                11           2             4    7     1      -0.2936967094E-02       4    7    1        -0.1576138849E+00      0.3860707622E+00
          0                12           2             4    7     1      -0.2464394093E-02       4    7    1        -0.1322517656E+00      0.3239469716E+00
          0                13           2             4    7     1      -0.2071332889E-02       4    7    1        -0.1111570851E+00      0.2722761497E+00
          0                14           2             4    7     1      -0.1743356743E-02       4    7    1        -0.9355552616E-01      0.2291616289E+00
          0                15           2             4    7     1      -0.1469001385E-02       4    7    1        -0.7883177724E-01      0.1930962217E+00
          0                16           2             4    7     1      -0.1239011819E-02       4    7    1        -0.6648910636E-01      0.1628631976E+00
          0                17           2             4    7     1      -0.1045844197E-02       4    7    1        -0.5612262466E-01      0.1374707928E+00
          0                18           2             4    7     1      -0.8833630744E-03       4    7    1        -0.4740303624E-01      0.1161124064E+00
          0                19           2             4    7     1      -0.7465427390E-03       4    7    1        -0.4006060756E-01      0.9812733384E-01
          0                20           2             4    7     1      -0.6312215747E-03       4    7    1        -0.3387198343E-01      0.8296847303E-01
                                                   Max.-Head-Change                         Max.-Flux-Residual
  Residual-Control   Outer-Iter.   Inner-Iter.     Column Row Layer    Maximum-Head-Change  Column Row Layer    Maximum-Flux-Residual          L2-NORM 
          0                21           2             4    7     1      -0.5339237940E-03       4    7    1        -0.2865061889E-01      0.7017888730E-01
          0                22           2             4    7     1      -0.4517653053E-03       4    7    1        -0.2424172647E-01      0.5937942912E-01
          0                23           2             4    7     1      -0.3823536828E-03       4    7    1        -0.2051690695E-01      0.5025558826E-01
          0                24           2             4    7     1      -0.3236707728E-03       4    7    1        -0.1736784906E-01      0.4254205933E-01
          0                25           2             4    7     1      -0.2740631614E-03       4    7    1        -0.1470581691E-01      0.3602148630E-01
          0                26           2             4    7     1      -0.2321006561E-03       4    7    1        -0.1245405561E-01      0.3050586014E-01
          0                27           2             4    7     1      -0.1965862206E-03       4    7    1        -0.1054832366E-01      0.2583782315E-01
          0                28           2             4    7     1      -0.1665197299E-03       4    7    1        -0.8934947648E-02      0.2188590384E-01
          0                29           2             4    7     1      -0.1410649676E-03       4    7    1        -0.7569050968E-02      0.1854017823E-01
          0                30           2             4    7     1      -0.1195163972E-03       4    7    1        -0.6412770379E-02      0.1570790135E-01
                                                   Max.-Head-Change                         Max.-Flux-Residual
  Residual-Control   Outer-Iter.   Inner-Iter.     Column Row Layer    Maximum-Head-Change  Column Row Layer    Maximum-Flux-Residual          L2-NORM 
          0                31           1             4    7     1      -0.1012659465E-03       4    7    1        -0.5433473581E-02      0.1330914130E-01
          0                32           1             4    7     1      -0.8580533789E-04       4    7    1        -0.4603884161E-02      0.1127708532E-01

    ------------------------------------------------
       NWT REQUIRED           32 OUTER ITERATIONS 
       AND A TOTAL OF         62 INNER ITERATIONS.
    ------------------------------------------------

 NO OUTPUT CONTROL FOR STRESS PERIOD   20   TIME STEP   15
 
 SOLVING FOR HEAD 
                                                   Max.-Head-Change                         Max.-Flux-Residual
  Residual-Control   Outer-Iter.   Inner-Iter.     Column Row Layer    Maximum-Head-Change  Column Row Layer    Maximum-Flux-Residual          L2-NORM 
          0                 1           2             5    8     1       0.1049273743E+00       5    8    1         0.5729777506E+01      0.1297212674E+02
          0                 2           2             5    7     1      -0.1920143786E+00       5    8    1        -0.1056374314E+02      0.2559510501E+02
          0                 3           2             4    7     1      -0.1583325409E-02       4    7    1        -0.8535240174E-01      0.1865098684E+00
          0                 4           2             4    7     1      -0.1191361695E-01       5    8    1        -0.6407420606E+00      0.1568087866E+01
          0                 5           2             4    7     1      -0.8928487459E-02       4    7    1        -0.4791789408E+00      0.1173596257E+01
          0                 6           2             4    7     1      -0.7372904183E-02       5    6    1        -0.3956889737E+00      0.9692350757E+00
          0                 7           2             4    7     1      -0.6080388282E-02       4    7    1        -0.3263181197E+00      0.7993062602E+00
          0                 8           2             4    7     1      -0.5043146488E-02       4    7    1        -0.2706495794E+00      0.6629485074E+00
          0                 9           2             4    7     1      -0.4199137260E-02       4    7    1        -0.2253521788E+00      0.5519937754E+00
          0                10           2             4    7     1      -0.3507373441E-02       4    7    1        -0.1882260028E+00      0.4610542726E+00
                                                   Max.-Head-Change                         Max.-Flux-Residual
  Residual-Control   Outer-Iter.   Inner-Iter.     Column Row Layer    Maximum-Head-Change  Column Row Layer    Maximum-Flux-Residual          L2-NORM 
          0                11           2             4    7     1      -0.2936979663E-02       4    7    1        -0.1576138849E+00      0.3860707618E+00
          0                12           2             4    7     1      -0.2464404639E-02       4    7    1        -0.1322517656E+00      0.3239469713E+00
          0                13           2             4    7     1      -0.2071341754E-02       4    7    1        -0.1111570851E+00      0.2722761494E+00
          0                14           2             4    7     1      -0.1743364203E-02       4    7    1        -0.9355552611E-01      0.2291616286E+00
          0                15           2             4    7     1      -0.1469007672E-02       4    7    1        -0.7883177723E-01      0.1930962216E+00
          0                16           2             4    7     1      -0.1239017122E-02       4    7    1        -0.6648910634E-01      0.1628631974E+00
          0                17           2             4    7     1      -0.1045848673E-02       4    7    1        -0.5612262465E-01      0.1374707926E+00
          0                18           2             4    7     1      -0.8833668550E-03       4    7    1        -0.4740303623E-01      0.1161124063E+00
          0                19           2             4    7     1      -0.7465459336E-03       4    7    1        -0.4006060754E-01      0.9812733377E-01
          0                20           2             4    7     1      -0.6312242762E-03       4    7    1        -0.3387198342E-01      0.8296847293E-01
                                                   Max.-Head-Change                         Max.-Flux-Residual
  Residual-Control   Outer-Iter.   Inner-Iter.     Column Row Layer    Maximum-Head-Change  Column Row Layer    Maximum-Flux-Residual          L2-NORM 
          0                21           2             4    7     1      -0.5339260794E-03       4    7    1        -0.2865061889E-01      0.7017888723E-01
          0                22           2             4    7     1      -0.4517672384E-03       4    7    1        -0.2424172645E-01      0.5937942907E-01
          0                23           2             4    7     1      -0.3823553190E-03       4    7    1        -0.2051690694E-01      0.5025558822E-01
          0                24           2             4    7     1      -0.3236721579E-03       4    7    1        -0.1736784906E-01      0.4254205929E-01
          0                25           2             4    7     1      -0.2740643345E-03       4    7    1        -0.1470581692E-01      0.3602148628E-01
          0                26           2             4    7     1      -0.2321016493E-03       4    7    1        -0.1245405560E-01      0.3050586011E-01
          0                27           2             4    7     1      -0.1965870618E-03       4    7    1        -0.1054832365E-01      0.2583782313E-01
          0                28           2             4    7     1      -0.1665204427E-03       4    7    1        -0.8934947647E-02      0.2188590382E-01
          0                29           2             4    7     1      -0.1410655713E-03       4    7    1        -0.7569050956E-02      0.1854017821E-01
          0                30           2             4    7     1      -0.1195169087E-03       4    7    1        -0.6412770382E-02      0.1570790134E-01
                                                   Max.-Head-Change                         Max.-Flux-Residual
  Residual-Control   Outer-Iter.   Inner-Iter.     Column Row Layer    Maximum-Head-Change  Column Row Layer    Maximum-Flux-Residual          L2-NORM 
          0                31           1             4    7     1      -0.1012663797E-03       4    7    1        -0.5433473574E-02      0.1330914129E-01
          0                32           1             4    7     1      -0.8580570524E-04       4    7    1        -0.4603884168E-02      0.1127708530E-01

    ------------------------------------------------
       NWT REQUIRED           32 OUTER ITERATIONS 
       AND A TOTAL OF         62 INNER ITERATIONS.
    ------------------------------------------------

 NO OUTPUT CONTROL FOR STRESS PERIOD   20   TIME STEP   16
 
 SOLVING FOR HEAD 
                                                   Max.-Head-Change                         Max.-Flux-Residual
  Residual-Control   Outer-Iter.   Inner-Iter.     Column Row Layer    Maximum-Head-Change  Column Row Layer    Maximum-Flux-Residual          L2-NORM 
          0                 1           2             5    8     1       0.1078067443E+00       5    8    1         0.5886311515E+01      0.1336138668E+02
          0                 2           2             5    7     1      -0.1922683781E+00       5    8    1        -0.1057939592E+02      0.2562965344E+02
          0                 3           2             4    7     1      -0.1569003607E-02       4    7    1        -0.8458933462E-01      0.1845395469E+00
          0                 4           2             4    7     1      -0.1191467164E-01       5    8    1        -0.6408184300E+00      0.1568254299E+01
          0                 5           2             4    7     1      -0.8928455837E-02       4    7    1        -0.4791752072E+00      0.1173584633E+01
          0                 6           2             4    7     1      -0.7372940993E-02       5    6    1        -0.3956893459E+00      0.9692358879E+00
          0                 7           2             4    7     1      -0.6080414238E-02       4    7    1        -0.3263181013E+00      0.7993062026E+00
          0                 8           2             4    7     1      -0.5043168326E-02       4    7    1        -0.2706495806E+00      0.6629485108E+00
          0                 9           2             4    7     1      -0.4199155422E-02       4    7    1        -0.2253521787E+00      0.5519937746E+00
          0                10           2             4    7     1      -0.3507388612E-02       4    7    1        -0.1882260028E+00      0.4610542723E+00
                                                   Max.-Head-Change                         Max.-Flux-Residual
  Residual-Control   Outer-Iter.   Inner-Iter.     Column Row Layer    Maximum-Head-Change  Column Row Layer    Maximum-Flux-Residual          L2-NORM 
          0                11           2             4    7     1      -0.2936992367E-02       4    7    1        -0.1576138848E+00      0.3860707615E+00
          0                12           2             4    7     1      -0.2464415298E-02       4    7    1        -0.1322517655E+00      0.3239469710E+00
          0                13           2             4    7     1      -0.2071350713E-02       4    7    1        -0.1111570851E+00      0.2722761492E+00
          0                14           2             4    7     1      -0.1743371745E-02       4    7    1        -0.9355552611E-01      0.2291616284E+00
          0                15           2             4    7     1      -0.1469014026E-02       4    7    1        -0.7883177719E-01      0.1930962214E+00
          0                16           2             4    7     1      -0.1239022481E-02       4    7    1        -0.6648910632E-01      0.1628631973E+00
          0                17           2             4    7     1      -0.1045853197E-02       4    7    1        -0.5612262464E-01      0.1374707925E+00
          0                18           2             4    7     1      -0.8833706758E-03       4    7    1        -0.4740303620E-01      0.1161124062E+00
          0                19           2             4    7     1      -0.7465491631E-03       4    7    1        -0.4006060754E-01      0.9812733368E-01
          0                20           2             4    7     1      -0.6312270065E-03       4    7    1        -0.3387198341E-01      0.8296847287E-01
                                                   Max.-Head-Change                         Max.-Flux-Residual
  Residual-Control   Outer-Iter.   Inner-Iter.     Column Row Layer    Maximum-Head-Change  Column Row Layer    Maximum-Flux-Residual          L2-NORM 
          0                21           2             4    7     1      -0.5339283885E-03       4    7    1        -0.2865061888E-01      0.7017888717E-01
          0                22           2             4    7     1      -0.4517691930E-03       4    7    1        -0.2424172646E-01      0.5937942901E-01
          0                23           2             4    7     1      -0.3823569728E-03       4    7    1        -0.2051690693E-01      0.5025558817E-01
          0                24           2             4    7     1      -0.3236735581E-03       4    7    1        -0.1736784905E-01      0.4254205924E-01
          0                25           2             4    7     1      -0.2740655197E-03       4    7    1        -0.1470581691E-01      0.3602148624E-01
          0                26           2             4    7     1      -0.2321026532E-03       4    7    1        -0.1245405560E-01      0.3050586008E-01
          0                27           2             4    7     1      -0.1965879124E-03       4    7    1        -0.1054832365E-01      0.2583782310E-01
          0                28           2             4    7     1      -0.1665211626E-03       4    7    1        -0.8934947636E-02      0.2188590379E-01
          0                29           2             4    7     1      -0.1410661818E-03       4    7    1        -0.7569050968E-02      0.1854017821E-01
          0                30           2             4    7     1      -0.1195174252E-03       4    7    1        -0.6412770365E-02      0.1570790131E-01
                                                   Max.-Head-Change                         Max.-Flux-Residual
  Residual-Control   Outer-Iter.   Inner-Iter.     Column Row Layer    Maximum-Head-Change  Column Row Layer    Maximum-Flux-Residual          L2-NORM 
          0                31           1             4    7     1      -0.1012668181E-03       4    7    1        -0.5433473590E-02      0.1330914129E-01
          0                32           1             4    7     1      -0.8580607624E-04       4    7    1        -0.4603884152E-02      0.1127708530E-01

    ------------------------------------------------
       NWT REQUIRED           32 OUTER ITERATIONS 
       AND A TOTAL OF         62 INNER ITERATIONS.
    ------------------------------------------------

 NO OUTPUT CONTROL FOR STRESS PERIOD   20   TIME STEP   17
 
 SOLVING FOR HEAD 
                                                   Max.-Head-Change                         Max.-Flux-Residual
  Residual-Control   Outer-Iter.   Inner-Iter.     Column Row Layer    Maximum-Head-Change  Column Row Layer    Maximum-Flux-Residual          L2-NORM 
          0                 1           2             5    8     1       0.1105610207E+00       5    8    1         0.6035918766E+01      0.1373691610E+02
          0                 2           2             5    7     1      -0.1925167829E+00       5    8    1        -0.1059435603E+02      0.2566322322E+02
          0                 3           2             4    7     1      -0.1554663477E-02       4    7    1        -0.8382422606E-01      0.1826333961E+00
          0                 4           2             4    7     1      -0.1191572809E-01       5    8    1        -0.6408914274E+00      0.1568416046E+01
          0                 5           2             4    7     1      -0.8928424479E-02       4    7    1        -0.4791714634E+00      0.1173573335E+01
          0                 6           2             4    7     1      -0.7372978102E-02       5    6    1        -0.3956897027E+00      0.9692366774E+00
          0                 7           2             4    7     1      -0.6080440434E-02       4    7    1        -0.3263180828E+00      0.7993061466E+00
          0                 8           2             4    7     1      -0.5043190364E-02       4    7    1        -0.2706495818E+00      0.6629485142E+00
          0                 9           2             4    7     1      -0.4199173750E-02       4    7    1        -0.2253521785E+00      0.5519937739E+00
          0                10           2             4    7     1      -0.3507403922E-02       4    7    1        -0.1882260027E+00      0.4610542719E+00
                                                   Max.-Head-Change                         Max.-Flux-Residual
  Residual-Control   Outer-Iter.   Inner-Iter.     Column Row Layer    Maximum-Head-Change  Column Row Layer    Maximum-Flux-Residual          L2-NORM 
          0                11           2             4    7     1      -0.2937005188E-02       4    7    1        -0.1576138848E+00      0.3860707612E+00
          0                12           2             4    7     1      -0.2464426056E-02       4    7    1        -0.1322517655E+00      0.3239469708E+00
          0                13           2             4    7     1      -0.2071359755E-02       4    7    1        -0.1111570850E+00      0.2722761489E+00
          0                14           2             4    7     1      -0.1743379355E-02       4    7    1        -0.9355552607E-01      0.2291616283E+00
          0                15           2             4    7     1      -0.1469020438E-02       4    7    1        -0.7883177716E-01      0.1930962213E+00
          0                16           2             4    7     1      -0.1239027889E-02       4    7    1        -0.6648910629E-01      0.1628631972E+00
          0                17           2             4    7     1      -0.1045857763E-02       4    7    1        -0.5612262463E-01      0.1374707924E+00
          0                18           2             4    7     1      -0.8833745320E-03       4    7    1        -0.4740303621E-01      0.1161124061E+00
          0                19           2             4    7     1      -0.7465524220E-03       4    7    1        -0.4006060753E-01      0.9812733360E-01
          0                20           2             4    7     1      -0.6312297617E-03       4    7    1        -0.3387198338E-01      0.8296847280E-01
                                                   Max.-Head-Change                         Max.-Flux-Residual
  Residual-Control   Outer-Iter.   Inner-Iter.     Column Row Layer    Maximum-Head-Change  Column Row Layer    Maximum-Flux-Residual          L2-NORM 
          0                21           2             4    7     1      -0.5339307194E-03       4    7    1        -0.2865061887E-01      0.7017888713E-01
          0                22           2             4    7     1      -0.4517711648E-03       4    7    1        -0.2424172644E-01      0.5937942896E-01
          0                23           2             4    7     1      -0.3823586420E-03       4    7    1        -0.2051690693E-01      0.5025558814E-01
          0                24           2             4    7     1      -0.3236749711E-03       4    7    1        -0.1736784904E-01      0.4254205921E-01
          0                25           2             4    7     1      -0.2740667159E-03       4    7    1        -0.1470581690E-01      0.3602148621E-01
          0                26           2             4    7     1      -0.2321036668E-03       4    7    1        -0.1245405561E-01      0.3050586007E-01
          0                27           2             4    7     1      -0.1965887705E-03       4    7    1        -0.1054832364E-01      0.2583782308E-01
          0                28           2             4    7     1      -0.1665218896E-03       4    7    1        -0.8934947624E-02      0.2188590378E-01
          0                29           2             4    7     1      -0.1410667972E-03       4    7    1        -0.7569050952E-02      0.1854017816E-01
          0                30           2             4    7     1      -0.1195179472E-03       4    7    1        -0.6412770376E-02      0.1570790132E-01
                                                   Max.-Head-Change                         Max.-Flux-Residual
  Residual-Control   Outer-Iter.   Inner-Iter.     Column Row Layer    Maximum-Head-Change  Column Row Layer    Maximum-Flux-Residual          L2-NORM 
          0                31           1             4    7     1      -0.1012672601E-03       4    7    1        -0.5433473582E-02      0.1330914128E-01
          0                32           1             4    7     1      -0.8580645064E-04       4    7    1        -0.4603884149E-02      0.1127708528E-01

    ------------------------------------------------
       NWT REQUIRED           32 OUTER ITERATIONS 
       AND A TOTAL OF         62 INNER ITERATIONS.
    ------------------------------------------------

 NO OUTPUT CONTROL FOR STRESS PERIOD   20   TIME STEP   18
 
 SOLVING FOR HEAD 
                                                   Max.-Head-Change                         Max.-Flux-Residual
  Residual-Control   Outer-Iter.   Inner-Iter.     Column Row Layer    Maximum-Head-Change  Column Row Layer    Maximum-Flux-Residual          L2-NORM 
          0                 1           2             5    8     1       0.1131980694E+00       5    8    1         0.6179039272E+01      0.1409940285E+02
          0                 2           2             5    7     1      -0.1927596546E+00       5    8    1        -0.1060866748E+02      0.2569585238E+02
          0                 3           2             4    7     1      -0.1540324391E-02       4    7    1        -0.8305819369E-01      0.1807880474E+00
          0                 4           2             4    7     1      -0.1191678486E-01       5    8    1        -0.6409612671E+00      0.1568573292E+01
          0                 5           2             4    7     1      -0.8928393422E-02       4    7    1        -0.4791677149E+00      0.1173562351E+01
          0                 6           2             4    7     1      -0.7373015457E-02       5    6    1        -0.3956900448E+00      0.9692374451E+00
          0                 7           2             4    7     1      -0.6080466834E-02       4    7    1        -0.3263180644E+00      0.7993060923E+00
          0                 8           2             4    7     1      -0.5043212570E-02       4    7    1        -0.2706495830E+00      0.6629485175E+00
          0                 9           2             4    7     1      -0.4199192218E-02       4    7    1        -0.2253521784E+00      0.5519937733E+00
          0                10           2             4    7     1      -0.3507419350E-02       4    7    1        -0.1882260027E+00      0.4610542716E+00
                                                   Max.-Head-Change                         Max.-Flux-Residual
  Residual-Control   Outer-Iter.   Inner-Iter.     Column Row Layer    Maximum-Head-Change  Column Row Layer    Maximum-Flux-Residual          L2-NORM 
          0                11           2             4    7     1      -0.2937018106E-02       4    7    1        -0.1576138847E+00      0.3860707610E+00
          0                12           2             4    7     1      -0.2464436896E-02       4    7    1        -0.1322517655E+00      0.3239469706E+00
          0                13           2             4    7     1      -0.2071368866E-02       4    7    1        -0.1111570850E+00      0.2722761488E+00
          0                14           2             4    7     1      -0.1743387023E-02       4    7    1        -0.9355552606E-01      0.2291616281E+00
          0                15           2             4    7     1      -0.1469026900E-02       4    7    1        -0.7883177714E-01      0.1930962211E+00
          0                16           2             4    7     1      -0.1239033339E-02       4    7    1        -0.6648910628E-01      0.1628631971E+00
          0                17           2             4    7     1      -0.1045862363E-02       4    7    1        -0.5612262460E-01      0.1374707923E+00
          0                18           2             4    7     1      -0.8833784173E-03       4    7    1        -0.4740303619E-01      0.1161124060E+00
          0                19           2             4    7     1      -0.7465557056E-03       4    7    1        -0.4006060752E-01      0.9812733353E-01
          0                20           2             4    7     1      -0.6312325381E-03       4    7    1        -0.3387198338E-01      0.8296847274E-01
                                                   Max.-Head-Change                         Max.-Flux-Residual
  Residual-Control   Outer-Iter.   Inner-Iter.     Column Row Layer    Maximum-Head-Change  Column Row Layer    Maximum-Flux-Residual          L2-NORM 
          0                21           2             4    7     1      -0.5339330676E-03       4    7    1        -0.2865061886E-01      0.7017888707E-01
          0                22           2             4    7     1      -0.4517731519E-03       4    7    1        -0.2424172644E-01      0.5937942894E-01
          0                23           2             4    7     1      -0.3823603238E-03       4    7    1        -0.2051690693E-01      0.5025558810E-01
          0                24           2             4    7     1      -0.3236763942E-03       4    7    1        -0.1736784903E-01      0.4254205919E-01
          0                25           2             4    7     1      -0.2740679218E-03       4    7    1        -0.1470581691E-01      0.3602148620E-01
          0                26           2             4    7     1      -0.2321046876E-03       4    7    1        -0.1245405560E-01      0.3050586004E-01
          0                27           2             4    7     1      -0.1965896351E-03       4    7    1        -0.1054832364E-01      0.2583782307E-01
          0                28           2             4    7     1      -0.1665226221E-03       4    7    1        -0.8934947632E-02      0.2188590380E-01
          0                29           2             4    7     1      -0.1410674178E-03       4    7    1        -0.7569050954E-02      0.1854017817E-01
          0                30           2             4    7     1      -0.1195184727E-03       4    7    1        -0.6412770365E-02      0.1570790132E-01
                                                   Max.-Head-Change                         Max.-Flux-Residual
  Residual-Control   Outer-Iter.   Inner-Iter.     Column Row Layer    Maximum-Head-Change  Column Row Layer    Maximum-Flux-Residual          L2-NORM 
          0                31           1             4    7     1      -0.1012677053E-03       4    7    1        -0.5433473586E-02      0.1330914129E-01
          0                32           1             4    7     1      -0.8580682846E-04       4    7    1        -0.4603884162E-02      0.1127708532E-01

    ------------------------------------------------
       NWT REQUIRED           32 OUTER ITERATIONS 
       AND A TOTAL OF         62 INNER ITERATIONS.
    ------------------------------------------------

 NO OUTPUT CONTROL FOR STRESS PERIOD   20   TIME STEP   19
 
 SOLVING FOR HEAD 
                                                   Max.-Head-Change                         Max.-Flux-Residual
  Residual-Control   Outer-Iter.   Inner-Iter.     Column Row Layer    Maximum-Head-Change  Column Row Layer    Maximum-Flux-Residual          L2-NORM 
          0                 1           2             5    8     1       0.1157247612E+00       5    8    1         0.6316057451E+01      0.1444950629E+02
          0                 2           2             5    7     1      -0.1929971071E+00       5    8    1        -0.1062236870E+02      0.2572757881E+02
          0                 3           2             4    7     1      -0.1526002357E-02       4    7    1        -0.8229216813E-01      0.1790002749E+00
          0                 4           2             4    7     1      -0.1191784079E-01       5    8    1        -0.6410281360E+00      0.1568726221E+01
          0                 5           2             4    7     1      -0.8928362700E-02       4    7    1        -0.4791639663E+00      0.1173551668E+01
          0                 6           2             4    7     1      -0.7373053012E-02       5    6    1        -0.3956903731E+00      0.9692381919E+00
          0                 7           2             4    7     1      -0.6080493404E-02       4    7    1        -0.3263180459E+00      0.7993060396E+00
          0                 8           2             4    7     1      -0.5043234917E-02       4    7    1        -0.2706495843E+00      0.6629485208E+00
          0                 9           2             4    7     1      -0.4199210803E-02       4    7    1        -0.2253521782E+00      0.5519937727E+00
          0                10           2             4    7     1      -0.3507434875E-02       4    7    1        -0.1882260026E+00      0.4610542714E+00
                                                   Max.-Head-Change                         Max.-Flux-Residual
  Residual-Control   Outer-Iter.   Inner-Iter.     Column Row Layer    Maximum-Head-Change  Column Row Layer    Maximum-Flux-Residual          L2-NORM 
          0                11           2             4    7     1      -0.2937031106E-02       4    7    1        -0.1576138847E+00      0.3860707608E+00
          0                12           2             4    7     1      -0.2464447805E-02       4    7    1        -0.1322517654E+00      0.3239469704E+00
          0                13           2             4    7     1      -0.2071378034E-02       4    7    1        -0.1111570850E+00      0.2722761486E+00
          0                14           2             4    7     1      -0.1743394740E-02       4    7    1        -0.9355552601E-01      0.2291616280E+00
          0                15           2             4    7     1      -0.1469033402E-02       4    7    1        -0.7883177712E-01      0.1930962210E+00
          0                16           2             4    7     1      -0.1239038824E-02       4    7    1        -0.6648910627E-01      0.1628631970E+00
          0                17           2             4    7     1      -0.1045866992E-02       4    7    1        -0.5612262460E-01      0.1374707923E+00
          0                18           2             4    7     1      -0.8833823277E-03       4    7    1        -0.4740303619E-01      0.1161124059E+00
          0                19           2             4    7     1      -0.7465590100E-03       4    7    1        -0.4006060751E-01      0.9812733349E-01
          0                20           2             4    7     1      -0.6312353324E-03       4    7    1        -0.3387198338E-01      0.8296847271E-01
                                                   Max.-Head-Change                         Max.-Flux-Residual
  Residual-Control   Outer-Iter.   Inner-Iter.     Column Row Layer    Maximum-Head-Change  Column Row Layer    Maximum-Flux-Residual          L2-NORM 
          0                21           2             4    7     1      -0.5339354309E-03       4    7    1        -0.2865061886E-01      0.7017888703E-01
          0                22           2             4    7     1      -0.4517751521E-03       4    7    1        -0.2424172645E-01      0.5937942889E-01
          0                23           2             4    7     1      -0.3823620158E-03       4    7    1        -0.2051690690E-01      0.5025558807E-01
          0                24           2             4    7     1      -0.3236778274E-03       4    7    1        -0.1736784904E-01      0.4254205917E-01
          0                25           2             4    7     1      -0.2740691348E-03       4    7    1        -0.1470581690E-01      0.3602148617E-01
          0                26           2             4    7     1      -0.2321057146E-03       4    7    1        -0.1245405559E-01      0.3050586002E-01
          0                27           2             4    7     1      -0.1965905055E-03       4    7    1        -0.1054832365E-01      0.2583782305E-01
          0                28           2             4    7     1      -0.1665233592E-03       4    7    1        -0.8934947626E-02      0.2188590376E-01
          0                29           2             4    7     1      -0.1410680420E-03       4    7    1        -0.7569050944E-02      0.1854017815E-01
          0                30           2             4    7     1      -0.1195190022E-03       4    7    1        -0.6412770374E-02      0.1570790130E-01
                                                   Max.-Head-Change                         Max.-Flux-Residual
  Residual-Control   Outer-Iter.   Inner-Iter.     Column Row Layer    Maximum-Head-Change  Column Row Layer    Maximum-Flux-Residual          L2-NORM 
          0                31           1             4    7     1      -0.1012681534E-03       4    7    1        -0.5433473569E-02      0.1330914126E-01
          0                32           1             4    7     1      -0.8580720809E-04       4    7    1        -0.4603884161E-02      0.1127708528E-01

    ------------------------------------------------
       NWT REQUIRED           32 OUTER ITERATIONS 
       AND A TOTAL OF         62 INNER ITERATIONS.
    ------------------------------------------------

 NO OUTPUT CONTROL FOR STRESS PERIOD   20   TIME STEP   20
 
 SOLVING FOR HEAD 
                                                   Max.-Head-Change                         Max.-Flux-Residual
  Residual-Control   Outer-Iter.   Inner-Iter.     Column Row Layer    Maximum-Head-Change  Column Row Layer    Maximum-Flux-Residual          L2-NORM 
          0                 1           2             5    8     1       0.1181476096E+00       5    8    1         0.6447337392E+01      0.1478783659E+02
          0                 2           2             5    7     1      -0.1932292573E+00       5    8    1        -0.1063549611E+02      0.2575843681E+02
          0                 3           2             4    7     1      -0.1511714735E-02       4    7    1        -0.8152715541E-01      0.1772672180E+00
          0                 4           2             4    7     1      -0.1191889456E-01       5    8    1        -0.6410922113E+00      0.1568875000E+01
          0                 5           2             4    7     1      -0.8928332344E-02       4    7    1        -0.4791602224E+00      0.1173541275E+01
          0                 6           2             4    7     1      -0.7373090718E-02       5    6    1        -0.3956906885E+00      0.9692389185E+00
          0                 7           2             4    7     1      -0.6080520109E-02       4    7    1        -0.3263180275E+00      0.7993059883E+00
          0                 8           2             4    7     1      -0.5043257377E-02       4    7    1        -0.2706495855E+00      0.6629485241E+00
          0                 9           2             4    7     1      -0.4199229482E-02       4    7    1        -0.2253521781E+00      0.5519937722E+00
          0                10           2             4    7     1      -0.3507450478E-02       4    7    1        -0.1882260026E+00      0.4610542712E+00
                                                   Max.-Head-Change                         Max.-Flux-Residual
  Residual-Control   Outer-Iter.   Inner-Iter.     Column Row Layer    Maximum-Head-Change  Column Row Layer    Maximum-Flux-Residual          L2-NORM 
          0                11           2             4    7     1      -0.2937044171E-02       4    7    1        -0.1576138847E+00      0.3860707606E+00
          0                12           2             4    7     1      -0.2464458768E-02       4    7    1        -0.1322517654E+00      0.3239469702E+00
          0                13           2             4    7     1      -0.2071387249E-02       4    7    1        -0.1111570850E+00      0.2722761485E+00
          0                14           2             4    7     1      -0.1743402495E-02       4    7    1        -0.9355552600E-01      0.2291616279E+00
          0                15           2             4    7     1      -0.1469039937E-02       4    7    1        -0.7883177710E-01      0.1930962209E+00
          0                16           2             4    7     1      -0.1239044336E-02       4    7    1        -0.6648910625E-01      0.1628631969E+00
          0                17           2             4    7     1      -0.1045871644E-02       4    7    1        -0.5612262457E-01      0.1374707922E+00
          0                18           2             4    7     1      -0.8833862574E-03       4    7    1        -0.4740303617E-01      0.1161124059E+00
          0                19           2             4    7     1      -0.7465623309E-03       4    7    1        -0.4006060749E-01      0.9812733343E-01
          0                20           2             4    7     1      -0.6312381405E-03       4    7    1        -0.3387198337E-01      0.8296847266E-01
                                                   Max.-Head-Change                         Max.-Flux-Residual
  Residual-Control   Outer-Iter.   Inner-Iter.     Column Row Layer    Maximum-Head-Change  Column Row Layer    Maximum-Flux-Residual          L2-NORM 
          0                21           2             4    7     1      -0.5339378062E-03       4    7    1        -0.2865061885E-01      0.7017888702E-01
          0                22           2             4    7     1      -0.4517771615E-03       4    7    1        -0.2424172643E-01      0.5937942887E-01
          0                23           2             4    7     1      -0.3823637169E-03       4    7    1        -0.2051690691E-01      0.5025558805E-01
          0                24           2             4    7     1      -0.3236792670E-03       4    7    1        -0.1736784903E-01      0.4254205915E-01
          0                25           2             4    7     1      -0.2740703542E-03       4    7    1        -0.1470581691E-01      0.3602148615E-01
          0                26           2             4    7     1      -0.2321067475E-03       4    7    1        -0.1245405559E-01      0.3050586001E-01
          0                27           2             4    7     1      -0.1965913796E-03       4    7    1        -0.1054832363E-01      0.2583782303E-01
          0                28           2             4    7     1      -0.1665241000E-03       4    7    1        -0.8934947632E-02      0.2188590375E-01
          0                29           2             4    7     1      -0.1410686696E-03       4    7    1        -0.7569050950E-02      0.1854017816E-01
          0                30           2             4    7     1      -0.1195195335E-03       4    7    1        -0.6412770375E-02      0.1570790129E-01
                                                   Max.-Head-Change                         Max.-Flux-Residual
  Residual-Control   Outer-Iter.   Inner-Iter.     Column Row Layer    Maximum-Head-Change  Column Row Layer    Maximum-Flux-Residual          L2-NORM 
          0                31           1             4    7     1      -0.1012686040E-03       4    7    1        -0.5433473586E-02      0.1330914127E-01
          0                32           1             4    7     1      -0.8580758992E-04       4    7    1        -0.4603884168E-02      0.1127708530E-01

    ------------------------------------------------
       NWT REQUIRED           32 OUTER ITERATIONS 
       AND A TOTAL OF         62 INNER ITERATIONS.
    ------------------------------------------------

 NO OUTPUT CONTROL FOR STRESS PERIOD   20   TIME STEP   21
 
 SOLVING FOR HEAD 
                                                   Max.-Head-Change                         Max.-Flux-Residual
  Residual-Control   Outer-Iter.   Inner-Iter.     Column Row Layer    Maximum-Head-Change  Column Row Layer    Maximum-Flux-Residual          L2-NORM 
          0                 1           2             5    8     1       0.1204727954E+00       5    8    1         0.6573224633E+01      0.1511497403E+02
          0                 2           2             5    7     1      -0.1934561971E+00       5    8    1        -0.1064808426E+02      0.2578846060E+02
          0                 3           2             4    7     1      -0.1497473884E-02       4    7    1        -0.8076387727E-01      0.1755860957E+00
          0                 4           2             4    7     1      -0.1191994528E-01       5    8    1        -0.6411536609E+00      0.1569019795E+01
          0                 5           2             4    7     1      -0.8928302377E-02       4    7    1        -0.4791564869E+00      0.1173531159E+01
          0                 6           2             4    7     1      -0.7373128540E-02       5    6    1        -0.3956909915E+00      0.9692396259E+00
          0                 7           2             4    7     1      -0.6080546925E-02       4    7    1        -0.3263180091E+00      0.7993059384E+00
          0                 8           2             4    7     1      -0.5043279926E-02       4    7    1        -0.2706495867E+00      0.6629485273E+00
          0                 9           2             4    7     1      -0.4199248236E-02       4    7    1        -0.2253521779E+00      0.5519937718E+00
          0                10           2             4    7     1      -0.3507466143E-02       4    7    1        -0.1882260026E+00      0.4610542711E+00
                                                   Max.-Head-Change                         Max.-Flux-Residual
  Residual-Control   Outer-Iter.   Inner-Iter.     Column Row Layer    Maximum-Head-Change  Column Row Layer    Maximum-Flux-Residual          L2-NORM 
          0                11           2             4    7     1      -0.2937057290E-02       4    7    1        -0.1576138846E+00      0.3860707604E+00
          0                12           2             4    7     1      -0.2464469775E-02       4    7    1        -0.1322517654E+00      0.3239469701E+00
          0                13           2             4    7     1      -0.2071396501E-02       4    7    1        -0.1111570849E+00      0.2722761484E+00
          0                14           2             4    7     1      -0.1743410282E-02       4    7    1        -0.9355552597E-01      0.2291616278E+00
          0                15           2             4    7     1      -0.1469046498E-02       4    7    1        -0.7883177709E-01      0.1930962208E+00
          0                16           2             4    7     1      -0.1239049870E-02       4    7    1        -0.6648910626E-01      0.1628631969E+00
          0                17           2             4    7     1      -0.1045876316E-02       4    7    1        -0.5612262456E-01      0.1374707921E+00
          0                18           2             4    7     1      -0.8833902028E-03       4    7    1        -0.4740303616E-01      0.1161124058E+00
          0                19           2             4    7     1      -0.7465656657E-03       4    7    1        -0.4006060750E-01      0.9812733340E-01
          0                20           2             4    7     1      -0.6312409600E-03       4    7    1        -0.3387198337E-01      0.8296847264E-01
                                                   Max.-Head-Change                         Max.-Flux-Residual
  Residual-Control   Outer-Iter.   Inner-Iter.     Column Row Layer    Maximum-Head-Change  Column Row Layer    Maximum-Flux-Residual          L2-NORM 
          0                21           2             4    7     1      -0.5339401906E-03       4    7    1        -0.2865061883E-01      0.7017888698E-01
          0                22           2             4    7     1      -0.4517791796E-03       4    7    1        -0.2424172644E-01      0.5937942885E-01
          0                23           2             4    7     1      -0.3823654248E-03       4    7    1        -0.2051690690E-01      0.5025558804E-01
          0                24           2             4    7     1      -0.3236807129E-03       4    7    1        -0.1736784902E-01      0.4254205913E-01
          0                25           2             4    7     1      -0.2740715781E-03       4    7    1        -0.1470581689E-01      0.3602148613E-01
          0                26           2             4    7     1      -0.2321077840E-03       4    7    1        -0.1245405558E-01      0.3050586000E-01
          0                27           2             4    7     1      -0.1965922579E-03       4    7    1        -0.1054832362E-01      0.2583782302E-01
          0                28           2             4    7     1      -0.1665248435E-03       4    7    1        -0.8934947617E-02      0.2188590376E-01
          0                29           2             4    7     1      -0.1410692998E-03       4    7    1        -0.7569050948E-02      0.1854017814E-01
          0                30           2             4    7     1      -0.1195200674E-03       4    7    1        -0.6412770372E-02      0.1570790130E-01
                                                   Max.-Head-Change                         Max.-Flux-Residual
  Residual-Control   Outer-Iter.   Inner-Iter.     Column Row Layer    Maximum-Head-Change  Column Row Layer    Maximum-Flux-Residual          L2-NORM 
          0                31           1             4    7     1      -0.1012690567E-03       4    7    1        -0.5433473584E-02      0.1330914125E-01
          0                32           1             4    7     1      -0.8580797285E-04       4    7    1        -0.4603884142E-02      0.1127708526E-01

    ------------------------------------------------
       NWT REQUIRED           32 OUTER ITERATIONS 
       AND A TOTAL OF         62 INNER ITERATIONS.
    ------------------------------------------------

 NO OUTPUT CONTROL FOR STRESS PERIOD   20   TIME STEP   22
 
 SOLVING FOR HEAD 
                                                   Max.-Head-Change                         Max.-Flux-Residual
  Residual-Control   Outer-Iter.   Inner-Iter.     Column Row Layer    Maximum-Head-Change  Column Row Layer    Maximum-Flux-Residual          L2-NORM 
          0                 1           2             5    8     1       0.1227060641E+00       5    8    1         0.6694039656E+01      0.1543145805E+02
          0                 2           2             5    7     1      -0.1936780508E+00       5    8    1        -0.1066016520E+02      0.2581768254E+02
          0                 3           2             4    7     1      -0.1483292795E-02       4    7    1        -0.8000309423E-01      0.1739543212E+00
          0                 4           2             4    7     1      -0.1192099198E-01       5    8    1        -0.6412126408E+00      0.1569160761E+01
          0                 5           2             4    7     1      -0.8928272823E-02       4    7    1        -0.4791527635E+00      0.1173521309E+01
          0                 6           2             4    7     1      -0.7373166442E-02       5    6    1        -0.3956912829E+00      0.9692403147E+00
          0                 7           2             4    7     1      -0.6080573823E-02       4    7    1        -0.3263179908E+00      0.7993058900E+00
          0                 8           2             4    7     1      -0.5043302543E-02       4    7    1        -0.2706495879E+00      0.6629485305E+00
          0                 9           2             4    7     1      -0.4199267046E-02       4    7    1        -0.2253521778E+00      0.5519937714E+00
          0                10           2             4    7     1      -0.3507481857E-02       4    7    1        -0.1882260025E+00      0.4610542709E+00
                                                   Max.-Head-Change                         Max.-Flux-Residual
  Residual-Control   Outer-Iter.   Inner-Iter.     Column Row Layer    Maximum-Head-Change  Column Row Layer    Maximum-Flux-Residual          L2-NORM 
          0                11           2             4    7     1      -0.2937070447E-02       4    7    1        -0.1576138846E+00      0.3860707603E+00
          0                12           2             4    7     1      -0.2464480815E-02       4    7    1        -0.1322517654E+00      0.3239469700E+00
          0                13           2             4    7     1      -0.2071405780E-02       4    7    1        -0.1111570849E+00      0.2722761483E+00
          0                14           2             4    7     1      -0.1743418092E-02       4    7    1        -0.9355552598E-01      0.2291616277E+00
          0                15           2             4    7     1      -0.1469053079E-02       4    7    1        -0.7883177707E-01      0.1930962208E+00
          0                16           2             4    7     1      -0.1239055421E-02       4    7    1        -0.6648910622E-01      0.1628631968E+00
          0                17           2             4    7     1      -0.1045881001E-02       4    7    1        -0.5612262453E-01      0.1374707921E+00
          0                18           2             4    7     1      -0.8833941608E-03       4    7    1        -0.4740303616E-01      0.1161124058E+00
          0                19           2             4    7     1      -0.7465690101E-03       4    7    1        -0.4006060747E-01      0.9812733337E-01
          0                20           2             4    7     1      -0.6312437876E-03       4    7    1        -0.3387198334E-01      0.8296847271E-01
                                                   Max.-Head-Change                         Max.-Flux-Residual
  Residual-Control   Outer-Iter.   Inner-Iter.     Column Row Layer    Maximum-Head-Change  Column Row Layer    Maximum-Flux-Residual          L2-NORM 
          0                21           2             4    7     1      -0.5339425828E-03       4    7    1        -0.2865061882E-01      0.7017888702E-01
          0                22           2             4    7     1      -0.4517812031E-03       4    7    1        -0.2424172642E-01      0.5937942885E-01
          0                23           2             4    7     1      -0.3823671379E-03       4    7    1        -0.2051690691E-01      0.5025558802E-01
          0                24           2             4    7     1      -0.3236821627E-03       4    7    1        -0.1736784902E-01      0.4254205912E-01
          0                25           2             4    7     1      -0.2740728061E-03       4    7    1        -0.1470581690E-01      0.3602148614E-01
          0                26           2             4    7     1      -0.2321088237E-03       4    7    1        -0.1245405557E-01      0.3050585998E-01
          0                27           2             4    7     1      -0.1965931385E-03       4    7    1        -0.1054832363E-01      0.2583782336E-01
          0                28           2             4    7     1      -0.1665255896E-03       4    7    1        -0.8934947626E-02      0.2188590389E-01
          0                29           2             4    7     1      -0.1410699320E-03       4    7    1        -0.7569050956E-02      0.1854017815E-01
          0                30           2             4    7     1      -0.1195206029E-03       4    7    1        -0.6412770363E-02      0.1570790127E-01
                                                   Max.-Head-Change                         Max.-Flux-Residual
  Residual-Control   Outer-Iter.   Inner-Iter.     Column Row Layer    Maximum-Head-Change  Column Row Layer    Maximum-Flux-Residual          L2-NORM 
          0                31           1             4    7     1      -0.1012695101E-03       4    7    1        -0.5433473563E-02      0.1330914125E-01
          0                32           1             4    7     1      -0.8580835711E-04       4    7    1        -0.4603884141E-02      0.1127708529E-01

    ------------------------------------------------
       NWT REQUIRED           32 OUTER ITERATIONS 
       AND A TOTAL OF         62 INNER ITERATIONS.
    ------------------------------------------------

 NO OUTPUT CONTROL FOR STRESS PERIOD   20   TIME STEP   23
 
 SOLVING FOR HEAD 
                                                   Max.-Head-Change                         Max.-Flux-Residual
  Residual-Control   Outer-Iter.   Inner-Iter.     Column Row Layer    Maximum-Head-Change  Column Row Layer    Maximum-Flux-Residual          L2-NORM 
          0                 1           2             5    8     1       0.1248527505E+00       5    8    1         0.6810080374E+01      0.1573780685E+02
          0                 2           2             5    7     1      -0.1938949151E+00       5    8    1        -0.1067176872E+02      0.2584613261E+02
          0                 3           2             4    7     1      -0.1469185168E-02       4    7    1        -0.7924560030E-01      0.1723696299E+00
          0                 4           2             4    7     1      -0.1192203364E-01       5    8    1        -0.6412692962E+00      0.1569298042E+01
          0                 5           2             4    7     1      -0.8928243707E-02       4    7    1        -0.4791490560E+00      0.1173511717E+01
          0                 6           2             4    7     1      -0.7373204381E-02       5    6    1        -0.3956915633E+00      0.9692409856E+00
          0                 7           2             4    7     1      -0.6080600777E-02       4    7    1        -0.3263179726E+00      0.7993058428E+00
          0                 8           2             4    7     1      -0.5043325204E-02       4    7    1        -0.2706495892E+00      0.6629485337E+00
          0                 9           2             4    7     1      -0.4199285893E-02       4    7    1        -0.2253521777E+00      0.5519937710E+00
          0                10           2             4    7     1      -0.3507497600E-02       4    7    1        -0.1882260025E+00      0.4610542708E+00
                                                   Max.-Head-Change                         Max.-Flux-Residual
  Residual-Control   Outer-Iter.   Inner-Iter.     Column Row Layer    Maximum-Head-Change  Column Row Layer    Maximum-Flux-Residual          L2-NORM 
          0                11           2             4    7     1      -0.2937083630E-02       4    7    1        -0.1576138846E+00      0.3860707602E+00
          0                12           2             4    7     1      -0.2464491878E-02       4    7    1        -0.1322517653E+00      0.3239469699E+00
          0                13           2             4    7     1      -0.2071415077E-02       4    7    1        -0.1111570849E+00      0.2722761483E+00
          0                14           2             4    7     1      -0.1743425918E-02       4    7    1        -0.9355552594E-01      0.2291616277E+00
          0                15           2             4    7     1      -0.1469059673E-02       4    7    1        -0.7883177706E-01      0.1930962208E+00
          0                16           2             4    7     1      -0.1239060982E-02       4    7    1        -0.6648910622E-01      0.1628631968E+00
          0                17           2             4    7     1      -0.1045885696E-02       4    7    1        -0.5612262455E-01      0.1374707921E+00
          0                18           2             4    7     1      -0.8833981260E-03       4    7    1        -0.4740303616E-01      0.1161124058E+00
          0                19           2             4    7     1      -0.7465723611E-03       4    7    1        -0.4006060746E-01      0.9812733335E-01
          0                20           2             4    7     1      -0.6312466206E-03       4    7    1        -0.3387198334E-01      0.8296847260E-01
                                                   Max.-Head-Change                         Max.-Flux-Residual
  Residual-Control   Outer-Iter.   Inner-Iter.     Column Row Layer    Maximum-Head-Change  Column Row Layer    Maximum-Flux-Residual          L2-NORM 
          0                21           2             4    7     1      -0.5339449797E-03       4    7    1        -0.2865061884E-01      0.7017888694E-01
          0                22           2             4    7     1      -0.4517832309E-03       4    7    1        -0.2424172642E-01      0.5937942883E-01
          0                23           2             4    7     1      -0.3823688545E-03       4    7    1        -0.2051690691E-01      0.5025558801E-01
          0                24           2             4    7     1      -0.3236836155E-03       4    7    1        -0.1736784901E-01      0.4254205911E-01
          0                25           2             4    7     1      -0.2740740362E-03       4    7    1        -0.1470581690E-01      0.3602148613E-01
          0                26           2             4    7     1      -0.2321098656E-03       4    7    1        -0.1245405558E-01      0.3050586000E-01
          0                27           2             4    7     1      -0.1965940213E-03       4    7    1        -0.1054832363E-01      0.2583782303E-01
          0                28           2             4    7     1      -0.1665263370E-03       4    7    1        -0.8934947609E-02      0.2188590373E-01
          0                29           2             4    7     1      -0.1410705650E-03       4    7    1        -0.7569050940E-02      0.1854017812E-01
          0                30           2             4    7     1      -0.1195211393E-03       4    7    1        -0.6412770363E-02      0.1570790127E-01
                                                   Max.-Head-Change                         Max.-Flux-Residual
  Residual-Control   Outer-Iter.   Inner-Iter.     Column Row Layer    Maximum-Head-Change  Column Row Layer    Maximum-Flux-Residual          L2-NORM 
          0                31           1             4    7     1      -0.1012699646E-03       4    7    1        -0.5433473578E-02      0.1330914129E-01
          0                32           1             4    7     1      -0.8580874271E-04       4    7    1        -0.4603884154E-02      0.1127708527E-01

    ------------------------------------------------
       NWT REQUIRED           32 OUTER ITERATIONS 
       AND A TOTAL OF         62 INNER ITERATIONS.
    ------------------------------------------------

 NO OUTPUT CONTROL FOR STRESS PERIOD   20   TIME STEP   24
 
 SOLVING FOR HEAD 
                                                   Max.-Head-Change                         Max.-Flux-Residual
  Residual-Control   Outer-Iter.   Inner-Iter.     Column Row Layer    Maximum-Head-Change  Column Row Layer    Maximum-Flux-Residual          L2-NORM 
          0                 1           2             5    8     1       0.1269175391E+00       5    8    1         0.6921607814E+01      0.1603449539E+02
          0                 2           2             5    7     1      -0.1941069311E+00       5    8    1        -0.1068292093E+02      0.2587384003E+02
          0                 3           2             4    7     1      -0.1455160743E-02       4    7    1        -0.7849197331E-01      0.1708297818E+00
          0                 4           2             4    7     1      -0.1192306953E-01       5    8    1        -0.6413237538E+00      0.1569431780E+01
          0                 5           2             4    7     1      -0.8928215044E-02       4    7    1        -0.4791453672E+00      0.1173502372E+01
          0                 6           2             4    7     1      -0.7373242331E-02       5    6    1        -0.3956918333E+00      0.9692416393E+00
          0                 7           2             4    7     1      -0.6080627764E-02       4    7    1        -0.3263179544E+00      0.7993057969E+00
          0                 8           2             4    7     1      -0.5043347890E-02       4    7    1        -0.2706495904E+00      0.6629485368E+00
          0                 9           2             4    7     1      -0.4199304762E-02       4    7    1        -0.2253521776E+00      0.5519937707E+00
          0                10           2             4    7     1      -0.3507513361E-02       4    7    1        -0.1882260025E+00      0.4610542708E+00
                                                   Max.-Head-Change                         Max.-Flux-Residual
  Residual-Control   Outer-Iter.   Inner-Iter.     Column Row Layer    Maximum-Head-Change  Column Row Layer    Maximum-Flux-Residual          L2-NORM 
          0                11           2             4    7     1      -0.2937096829E-02       4    7    1        -0.1576138845E+00      0.3860707602E+00
          0                12           2             4    7     1      -0.2464502952E-02       4    7    1        -0.1322517653E+00      0.3239469699E+00
          0                13           2             4    7     1      -0.2071424386E-02       4    7    1        -0.1111570849E+00      0.2722761482E+00
          0                14           2             4    7     1      -0.1743433752E-02       4    7    1        -0.9355552595E-01      0.2291616277E+00
          0                15           2             4    7     1      -0.1469066275E-02       4    7    1        -0.7883177704E-01      0.1930962207E+00
          0                16           2             4    7     1      -0.1239066550E-02       4    7    1        -0.6648910621E-01      0.1628631968E+00
          0                17           2             4    7     1      -0.1045890395E-02       4    7    1        -0.5612262453E-01      0.1374707920E+00
          0                18           2             4    7     1      -0.8834020957E-03       4    7    1        -0.4740303615E-01      0.1161124058E+00
          0                19           2             4    7     1      -0.7465757159E-03       4    7    1        -0.4006060746E-01      0.9812733334E-01
          0                20           2             4    7     1      -0.6312494575E-03       4    7    1        -0.3387198334E-01      0.8296847258E-01
                                                   Max.-Head-Change                         Max.-Flux-Residual
  Residual-Control   Outer-Iter.   Inner-Iter.     Column Row Layer    Maximum-Head-Change  Column Row Layer    Maximum-Flux-Residual          L2-NORM 
          0                21           2             4    7     1      -0.5339473794E-03       4    7    1        -0.2865061883E-01      0.7017888694E-01
          0                22           2             4    7     1      -0.4517852609E-03       4    7    1        -0.2424172640E-01      0.5937942880E-01
          0                23           2             4    7     1      -0.3823705724E-03       4    7    1        -0.2051690690E-01      0.5025558800E-01
          0                24           2             4    7     1      -0.3236850702E-03       4    7    1        -0.1736784901E-01      0.4254205910E-01
          0                25           2             4    7     1      -0.2740752675E-03       4    7    1        -0.1470581689E-01      0.3602148612E-01
          0                26           2             4    7     1      -0.2321109091E-03       4    7    1        -0.1245405559E-01      0.3050585998E-01
          0                27           2             4    7     1      -0.1965949044E-03       4    7    1        -0.1054832362E-01      0.2583782301E-01
          0                28           2             4    7     1      -0.1665270850E-03       4    7    1        -0.8934947612E-02      0.2188590373E-01
          0                29           2             4    7     1      -0.1410711993E-03       4    7    1        -0.7569050969E-02      0.1854017813E-01
          0                30           2             4    7     1      -0.1195216764E-03       4    7    1        -0.6412770371E-02      0.1570790127E-01
                                                   Max.-Head-Change                         Max.-Flux-Residual
  Residual-Control   Outer-Iter.   Inner-Iter.     Column Row Layer    Maximum-Head-Change  Column Row Layer    Maximum-Flux-Residual          L2-NORM 
          0                31           1             4    7     1      -0.1012704197E-03       4    7    1        -0.5433473582E-02      0.1330914124E-01
          0                32           1             4    7     1      -0.8580912819E-04       4    7    1        -0.4603884161E-02      0.1127708525E-01

    ------------------------------------------------
       NWT REQUIRED           32 OUTER ITERATIONS 
       AND A TOTAL OF         62 INNER ITERATIONS.
    ------------------------------------------------

 NO OUTPUT CONTROL FOR STRESS PERIOD   20   TIME STEP   25
 
 SOLVING FOR HEAD 
                                                   Max.-Head-Change                         Max.-Flux-Residual
  Residual-Control   Outer-Iter.   Inner-Iter.     Column Row Layer    Maximum-Head-Change  Column Row Layer    Maximum-Flux-Residual          L2-NORM 
          0                 1           2             5    8     1       0.1289052034E+00       5    8    1         0.7028888283E+01      0.1632197842E+02
          0                 2           2             5    7     1      -0.1943141961E+00       5    8    1        -0.1069364845E+02      0.2590083310E+02
          0                 3           2             4    7     1      -0.1441229264E-02       4    7    1        -0.7774278318E-01      0.1693330614E+00
          0                 4           2             4    7     1      -0.1192409894E-01       5    8    1        -0.6413761436E+00      0.1569562107E+01
          0                 5           2             4    7     1      -0.8928186853E-02       4    7    1        -0.4791417001E+00      0.1173493265E+01
          0                 6           2             4    7     1      -0.7373280261E-02       5    6    1        -0.3956920935E+00      0.9692422770E+00
          0                 7           2             4    7     1      -0.6080654763E-02       4    7    1        -0.3263179364E+00      0.7993057527E+00
          0                 8           2             4    7     1      -0.5043370585E-02       4    7    1        -0.2706495916E+00      0.6629485401E+00
          0                 9           2             4    7     1      -0.4199323636E-02       4    7    1        -0.2253521774E+00      0.5519937707E+00
          0                10           2             4    7     1      -0.3507529129E-02       4    7    1        -0.1882260025E+00      0.4610542710E+00
                                                   Max.-Head-Change                         Max.-Flux-Residual
  Residual-Control   Outer-Iter.   Inner-Iter.     Column Row Layer    Maximum-Head-Change  Column Row Layer    Maximum-Flux-Residual          L2-NORM 
          0                11           2             4    7     1      -0.2937110032E-02       4    7    1        -0.1576138845E+00      0.3860707603E+00
          0                12           2             4    7     1      -0.2464514031E-02       4    7    1        -0.1322517653E+00      0.3239469700E+00
          0                13           2             4    7     1      -0.2071433698E-02       4    7    1        -0.1111570849E+00      0.2722761483E+00
          0                14           2             4    7     1      -0.1743441589E-02       4    7    1        -0.9355552592E-01      0.2291616278E+00
          0                15           2             4    7     1      -0.1469072879E-02       4    7    1        -0.7883177703E-01      0.1930962208E+00
          0                16           2             4    7     1      -0.1239072120E-02       4    7    1        -0.6648910619E-01      0.1628631968E+00
          0                17           2             4    7     1      -0.1045895097E-02       4    7    1        -0.5612262453E-01      0.1374707921E+00
          0                18           2             4    7     1      -0.8834060665E-03       4    7    1        -0.4740303613E-01      0.1161124058E+00
          0                19           2             4    7     1      -0.7465790722E-03       4    7    1        -0.4006060747E-01      0.9812733338E-01
          0                20           2             4    7     1      -0.6312522951E-03       4    7    1        -0.3387198333E-01      0.8296847263E-01
                                                   Max.-Head-Change                         Max.-Flux-Residual
  Residual-Control   Outer-Iter.   Inner-Iter.     Column Row Layer    Maximum-Head-Change  Column Row Layer    Maximum-Flux-Residual          L2-NORM 
          0                21           2             4    7     1      -0.5339497794E-03       4    7    1        -0.2865061883E-01      0.7017888696E-01
          0                22           2             4    7     1      -0.4517872921E-03       4    7    1        -0.2424172641E-01      0.5937942884E-01
          0                23           2             4    7     1      -0.3823722912E-03       4    7    1        -0.2051690690E-01      0.5025558802E-01
          0                24           2             4    7     1      -0.3236865257E-03       4    7    1        -0.1736784902E-01      0.4254205912E-01
          0                25           2             4    7     1      -0.2740764995E-03       4    7    1        -0.1470581687E-01      0.3602148612E-01
          0                26           2             4    7     1      -0.2321119523E-03       4    7    1        -0.1245405558E-01      0.3050586001E-01
          0                27           2             4    7     1      -0.1965957880E-03       4    7    1        -0.1054832362E-01      0.2583782304E-01
          0                28           2             4    7     1      -0.1665278342E-03       4    7    1        -0.8934947628E-02      0.2188590374E-01
          0                29           2             4    7     1      -0.1410718329E-03       4    7    1        -0.7569050939E-02      0.1854017813E-01
          0                30           2             4    7     1      -0.1195222138E-03       4    7    1        -0.6412770371E-02      0.1570790129E-01
                                                   Max.-Head-Change                         Max.-Flux-Residual
  Residual-Control   Outer-Iter.   Inner-Iter.     Column Row Layer    Maximum-Head-Change  Column Row Layer    Maximum-Flux-Residual          L2-NORM 
          0                31           1             4    7     1      -0.1012708749E-03       4    7    1        -0.5433473576E-02      0.1330914125E-01
          0                32           1             4    7     1      -0.8580951403E-04       4    7    1        -0.4603884156E-02      0.1127708527E-01

    ------------------------------------------------
       NWT REQUIRED           32 OUTER ITERATIONS 
       AND A TOTAL OF         62 INNER ITERATIONS.
    ------------------------------------------------

 NO OUTPUT CONTROL FOR STRESS PERIOD   20   TIME STEP   26
 
 SOLVING FOR HEAD 
                                                   Max.-Head-Change                         Max.-Flux-Residual
  Residual-Control   Outer-Iter.   Inner-Iter.     Column Row Layer    Maximum-Head-Change  Column Row Layer    Maximum-Flux-Residual          L2-NORM 
          0                 1           2             5    8     1       0.1308202675E+00       5    8    1         0.7132162580E+01      0.1660067384E+02
          0                 2           2             5    7     1      -0.1945168168E+00       5    8    1        -0.1070397537E+02      0.2592714305E+02
          0                 3           2             4    7     1      -0.1427400409E-02       4    7    1        -0.7699860009E-01      0.1678809952E+00
          0                 4           2             4    7     1      -0.1192512114E-01       5    8    1        -0.6414265615E+00      0.1569689142E+01
          0                 5           2             4    7     1      -0.8928159147E-02       4    7    1        -0.4791380574E+00      0.1173484389E+01
          0                 6           2             4    7     1      -0.7373318142E-02       5    6    1        -0.3956923444E+00      0.9692428988E+00
          0                 7           2             4    7     1      -0.6080681753E-02       4    7    1        -0.3263179185E+00      0.7993057098E+00
          0                 8           2             4    7     1      -0.5043393270E-02       4    7    1        -0.2706495928E+00      0.6629485437E+00
          0                 9           2             4    7     1      -0.4199342504E-02       4    7    1        -0.2253521773E+00      0.5519937709E+00
          0                10           2             4    7     1      -0.3507544890E-02       4    7    1        -0.1882260024E+00      0.4610542714E+00
                                                   Max.-Head-Change                         Max.-Flux-Residual
  Residual-Control   Outer-Iter.   Inner-Iter.     Column Row Layer    Maximum-Head-Change  Column Row Layer    Maximum-Flux-Residual          L2-NORM 
          0                11           2             4    7     1      -0.2937123229E-02       4    7    1        -0.1576138845E+00      0.3860707606E+00
          0                12           2             4    7     1      -0.2464525104E-02       4    7    1        -0.1322517652E+00      0.3239469703E+00
          0                13           2             4    7     1      -0.2071443005E-02       4    7    1        -0.1111570848E+00      0.2722761485E+00
          0                14           2             4    7     1      -0.1743449423E-02       4    7    1        -0.9355552592E-01      0.2291616279E+00
          0                15           2             4    7     1      -0.1469079480E-02       4    7    1        -0.7883177703E-01      0.1930962210E+00
          0                16           2             4    7     1      -0.1239077687E-02       4    7    1        -0.6648910618E-01      0.1628631969E+00
          0                17           2             4    7     1      -0.1045899797E-02       4    7    1        -0.5612262453E-01      0.1374707922E+00
          0                18           2             4    7     1      -0.8834100362E-03       4    7    1        -0.4740303612E-01      0.1161124059E+00
          0                19           2             4    7     1      -0.7465824266E-03       4    7    1        -0.4006060743E-01      0.9812733345E-01
          0                20           2             4    7     1      -0.6312551316E-03       4    7    1        -0.3387198332E-01      0.8296847267E-01
                                                   Max.-Head-Change                         Max.-Flux-Residual
  Residual-Control   Outer-Iter.   Inner-Iter.     Column Row Layer    Maximum-Head-Change  Column Row Layer    Maximum-Flux-Residual          L2-NORM 
          0                21           2             4    7     1      -0.5339521784E-03       4    7    1        -0.2865061881E-01      0.7017888700E-01
          0                22           2             4    7     1      -0.4517893220E-03       4    7    1        -0.2424172640E-01      0.5937942887E-01
          0                23           2             4    7     1      -0.3823740094E-03       4    7    1        -0.2051690690E-01      0.5025558805E-01
          0                24           2             4    7     1      -0.3236879801E-03       4    7    1        -0.1736784902E-01      0.4254205915E-01
          0                25           2             4    7     1      -0.2740777309E-03       4    7    1        -0.1470581687E-01      0.3602148615E-01
          0                26           2             4    7     1      -0.2321129955E-03       4    7    1        -0.1245405559E-01      0.3050586003E-01
          0                27           2             4    7     1      -0.1965966714E-03       4    7    1        -0.1054832362E-01      0.2583782304E-01
          0                28           2             4    7     1      -0.1665285822E-03       4    7    1        -0.8934947615E-02      0.2188590377E-01
          0                29           2             4    7     1      -0.1410724671E-03       4    7    1        -0.7569050952E-02      0.1854017816E-01
          0                30           2             4    7     1      -0.1195227507E-03       4    7    1        -0.6412770361E-02      0.1570790129E-01
                                                   Max.-Head-Change                         Max.-Flux-Residual
  Residual-Control   Outer-Iter.   Inner-Iter.     Column Row Layer    Maximum-Head-Change  Column Row Layer    Maximum-Flux-Residual          L2-NORM 
          0                31           1             4    7     1      -0.1012713302E-03       4    7    1        -0.5433473581E-02      0.1330914127E-01
          0                32           1             4    7     1      -0.8580989951E-04       4    7    1        -0.4603884145E-02      0.1127708526E-01

    ------------------------------------------------
       NWT REQUIRED           32 OUTER ITERATIONS 
       AND A TOTAL OF         62 INNER ITERATIONS.
    ------------------------------------------------

 NO OUTPUT CONTROL FOR STRESS PERIOD   20   TIME STEP   27
 
 SOLVING FOR HEAD 
                                                   Max.-Head-Change                         Max.-Flux-Residual
  Residual-Control   Outer-Iter.   Inner-Iter.     Column Row Layer    Maximum-Head-Change  Column Row Layer    Maximum-Flux-Residual          L2-NORM 
          0                 1           2             5    8     1       0.1326672587E+00       5    8    1         0.7231668025E+01      0.1687084820E+02
          0                 2           2             5    7     1      -0.1947220822E+00       5    8    1        -0.1071352861E+02      0.2595277597E+02
          0                 3           2             4    7     1      -0.1413676523E-02       4    7    1        -0.7625988580E-01      0.1664567727E+00
          0                 4           2             4    7     1      -0.1192613774E-01       5    8    1        -0.6414732509E+00      0.1569813037E+01
          0                 5           2             4    7     1      -0.8928133258E-02       4    7    1        -0.4791344413E+00      0.1173475729E+01
          0                 6           2             4    7     1      -0.7373357062E-02       5    6    1        -0.3956925864E+00      0.9692435049E+00
          0                 7           2             4    7     1      -0.6080709632E-02       4    7    1        -0.3263179007E+00      0.7993056674E+00
          0                 8           2             4    7     1      -0.5043416691E-02       4    7    1        -0.2706495940E+00      0.6629485467E+00
          0                 9           2             4    7     1      -0.4199361985E-02       4    7    1        -0.2253521772E+00      0.5519937708E+00
          0                10           2             4    7     1      -0.3507561162E-02       4    7    1        -0.1882260024E+00      0.4610542714E+00
                                                   Max.-Head-Change                         Max.-Flux-Residual
  Residual-Control   Outer-Iter.   Inner-Iter.     Column Row Layer    Maximum-Head-Change  Column Row Layer    Maximum-Flux-Residual          L2-NORM 
          0                11           2             4    7     1      -0.2937136855E-02       4    7    1        -0.1576138845E+00      0.3860707607E+00
          0                12           2             4    7     1      -0.2464536538E-02       4    7    1        -0.1322517653E+00      0.3239469703E+00
          0                13           2             4    7     1      -0.2071452615E-02       4    7    1        -0.1111570848E+00      0.2722761486E+00
          0                14           2             4    7     1      -0.1743457512E-02       4    7    1        -0.9355552590E-01      0.2291616279E+00
          0                15           2             4    7     1      -0.1469086295E-02       4    7    1        -0.7883177701E-01      0.1930962210E+00
          0                16           2             4    7     1      -0.1239083436E-02       4    7    1        -0.6648910618E-01      0.1628631970E+00
          0                17           2             4    7     1      -0.1045904649E-02       4    7    1        -0.5612262451E-01      0.1374707922E+00
          0                18           2             4    7     1      -0.8834141346E-03       4    7    1        -0.4740303612E-01      0.1161124059E+00
          0                19           2             4    7     1      -0.7465858899E-03       4    7    1        -0.4006060744E-01      0.9812733344E-01
          0                20           2             4    7     1      -0.6312580608E-03       4    7    1        -0.3387198334E-01      0.8296847269E-01
                                                   Max.-Head-Change                         Max.-Flux-Residual
  Residual-Control   Outer-Iter.   Inner-Iter.     Column Row Layer    Maximum-Head-Change  Column Row Layer    Maximum-Flux-Residual          L2-NORM 
          0                21           2             4    7     1      -0.5339546551E-03       4    7    1        -0.2865061880E-01      0.7017888701E-01
          0                22           2             4    7     1      -0.4517914185E-03       4    7    1        -0.2424172642E-01      0.5937942889E-01
          0                23           2             4    7     1      -0.3823757830E-03       4    7    1        -0.2051690688E-01      0.5025558805E-01
          0                24           2             4    7     1      -0.3236894817E-03       4    7    1        -0.1736784902E-01      0.4254205917E-01
          0                25           2             4    7     1      -0.2740790031E-03       4    7    1        -0.1470581688E-01      0.3602148616E-01
          0                26           2             4    7     1      -0.2321140716E-03       4    7    1        -0.1245405555E-01      0.3050586000E-01
          0                27           2             4    7     1      -0.1965975837E-03       4    7    1        -0.1054832363E-01      0.2583782304E-01
          0                28           2             4    7     1      -0.1665293549E-03       4    7    1        -0.8934947613E-02      0.2188590375E-01
          0                29           2             4    7     1      -0.1410731211E-03       4    7    1        -0.7569050935E-02      0.1854017815E-01
          0                30           2             4    7     1      -0.1195233055E-03       4    7    1        -0.6412770377E-02      0.1570790129E-01
                                                   Max.-Head-Change                         Max.-Flux-Residual
  Residual-Control   Outer-Iter.   Inner-Iter.     Column Row Layer    Maximum-Head-Change  Column Row Layer    Maximum-Flux-Residual          L2-NORM 
          0                31           1             4    7     1      -0.1012717997E-03       4    7    1        -0.5433473570E-02      0.1330914125E-01
          0                32           1             4    7     1      -0.8581029777E-04       4    7    1        -0.4603884156E-02      0.1127708525E-01

    ------------------------------------------------
       NWT REQUIRED           32 OUTER ITERATIONS 
       AND A TOTAL OF         62 INNER ITERATIONS.
    ------------------------------------------------

 NO OUTPUT CONTROL FOR STRESS PERIOD   20   TIME STEP   28
 
 SOLVING FOR HEAD 
                                                   Max.-Head-Change                         Max.-Flux-Residual
  Residual-Control   Outer-Iter.   Inner-Iter.     Column Row Layer    Maximum-Head-Change  Column Row Layer    Maximum-Flux-Residual          L2-NORM 
          0                 1           2             5    8     1       0.1344730876E+00       5    8    1         0.7328044195E+01      0.1713307197E+02
          0                 2           2             5    7     1      -0.1949081815E+00       5    8    1        -0.1072356383E+02      0.2597778222E+02
          0                 3           2             4    7     1      -0.1400083777E-02       4    7    1        -0.7552706124E-01      0.1650780758E+00
          0                 4           2             4    7     1      -0.1192714326E-01       5    8    1        -0.6415222867E+00      0.1569933883E+01
          0                 5           2             4    7     1      -0.8928106592E-02       4    7    1        -0.4791308540E+00      0.1173467283E+01
          0                 6           2             4    7     1      -0.7373394765E-02       5    6    1        -0.3956928201E+00      0.9692440961E+00
          0                 7           2             4    7     1      -0.6080736548E-02       4    7    1        -0.3263178831E+00      0.7993056262E+00
          0                 8           2             4    7     1      -0.5043439309E-02       4    7    1        -0.2706495952E+00      0.6629485497E+00
          0                 9           2             4    7     1      -0.4199380797E-02       4    7    1        -0.2253521771E+00      0.5519937707E+00
          0                10           2             4    7     1      -0.3507576877E-02       4    7    1        -0.1882260024E+00      0.4610542715E+00
                                                   Max.-Head-Change                         Max.-Flux-Residual
  Residual-Control   Outer-Iter.   Inner-Iter.     Column Row Layer    Maximum-Head-Change  Column Row Layer    Maximum-Flux-Residual          L2-NORM 
          0                11           2             4    7     1      -0.2937150014E-02       4    7    1        -0.1576138845E+00      0.3860707607E+00
          0                12           2             4    7     1      -0.2464547580E-02       4    7    1        -0.1322517652E+00      0.3239469703E+00
          0                13           2             4    7     1      -0.2071461896E-02       4    7    1        -0.1111570848E+00      0.2722761486E+00
          0                14           2             4    7     1      -0.1743465322E-02       4    7    1        -0.9355552587E-01      0.2291616280E+00
          0                15           2             4    7     1      -0.1469092877E-02       4    7    1        -0.7883177701E-01      0.1930962210E+00
          0                16           2             4    7     1      -0.1239088987E-02       4    7    1        -0.6648910616E-01      0.1628631970E+00
          0                17           2             4    7     1      -0.1045909335E-02       4    7    1        -0.5612262453E-01      0.1374707922E+00
          0                18           2             4    7     1      -0.8834180922E-03       4    7    1        -0.4740303611E-01      0.1161124059E+00
          0                19           2             4    7     1      -0.7465892350E-03       4    7    1        -0.4006060745E-01      0.9812733348E-01
          0                20           2             4    7     1      -0.6312608886E-03       4    7    1        -0.3387198334E-01      0.8296847270E-01
                                                   Max.-Head-Change                         Max.-Flux-Residual
  Residual-Control   Outer-Iter.   Inner-Iter.     Column Row Layer    Maximum-Head-Change  Column Row Layer    Maximum-Flux-Residual          L2-NORM 
          0                21           2             4    7     1      -0.5339570480E-03       4    7    1        -0.2865061882E-01      0.7017888704E-01
          0                22           2             4    7     1      -0.4517934424E-03       4    7    1        -0.2424172640E-01      0.5937942890E-01
          0                23           2             4    7     1      -0.3823774964E-03       4    7    1        -0.2051690688E-01      0.5025558807E-01
          0                24           2             4    7     1      -0.3236909317E-03       4    7    1        -0.1736784900E-01      0.4254205917E-01
          0                25           2             4    7     1      -0.2740802306E-03       4    7    1        -0.1470581687E-01      0.3602148615E-01
          0                26           2             4    7     1      -0.2321151116E-03       4    7    1        -0.1245405557E-01      0.3050586003E-01
          0                27           2             4    7     1      -0.1965984645E-03       4    7    1        -0.1054832363E-01      0.2583782305E-01
          0                28           2             4    7     1      -0.1665301013E-03       4    7    1        -0.8934947617E-02      0.2188590375E-01
          0                29           2             4    7     1      -0.1410737531E-03       4    7    1        -0.7569050925E-02      0.1854017813E-01
          0                30           2             4    7     1      -0.1195238409E-03       4    7    1        -0.6412770368E-02      0.1570790129E-01
                                                   Max.-Head-Change                         Max.-Flux-Residual
  Residual-Control   Outer-Iter.   Inner-Iter.     Column Row Layer    Maximum-Head-Change  Column Row Layer    Maximum-Flux-Residual          L2-NORM 
          0                31           1             4    7     1      -0.1012722533E-03       4    7    1        -0.5433473571E-02      0.1330914124E-01
          0                32           1             4    7     1      -0.8581068227E-04       4    7    1        -0.4603884166E-02      0.1127708527E-01

    ------------------------------------------------
       NWT REQUIRED           32 OUTER ITERATIONS 
       AND A TOTAL OF         62 INNER ITERATIONS.
    ------------------------------------------------

 NO OUTPUT CONTROL FOR STRESS PERIOD   20   TIME STEP   29
 
 SOLVING FOR HEAD 
                                                   Max.-Head-Change                         Max.-Flux-Residual
  Residual-Control   Outer-Iter.   Inner-Iter.     Column Row Layer    Maximum-Head-Change  Column Row Layer    Maximum-Flux-Residual          L2-NORM 
          0                 1           2             5    8     1       0.1362064351E+00       5    8    1         0.7421572369E+01      0.1740321887E+02
          0                 2           2             5    7     1      -0.1950955978E+00       5    8    1        -0.1073291604E+02      0.2600226560E+02
          0                 3           2             4    7     1      -0.1386611411E-02       4    7    1        -0.7480065137E-01      0.1638067457E+00
          0                 4           2             4    7     1      -0.1192814021E-01       5    8    1        -0.6415679411E+00      0.1570051743E+01
          0                 5           2             4    7     1      -0.8928080422E-02       4    7    1        -0.4791272979E+00      0.1173459048E+01
          0                 6           2             4    7     1      -0.7373432348E-02       5    6    1        -0.3956930454E+00      0.9692446725E+00
          0                 7           2             4    7     1      -0.6080763402E-02       4    7    1        -0.3263178657E+00      0.7993055860E+00
          0                 8           2             4    7     1      -0.5043461874E-02       4    7    1        -0.2706495964E+00      0.6629485527E+00
          0                 9           2             4    7     1      -0.4199399564E-02       4    7    1        -0.2253521770E+00      0.5519937706E+00
          0                10           2             4    7     1      -0.3507592555E-02       4    7    1        -0.1882260024E+00      0.4610542716E+00
                                                   Max.-Head-Change                         Max.-Flux-Residual
  Residual-Control   Outer-Iter.   Inner-Iter.     Column Row Layer    Maximum-Head-Change  Column Row Layer    Maximum-Flux-Residual          L2-NORM 
          0                11           2             4    7     1      -0.2937163142E-02       4    7    1        -0.1576138844E+00      0.3860707608E+00
          0                12           2             4    7     1      -0.2464558595E-02       4    7    1        -0.1322517652E+00      0.3239469704E+00
          0                13           2             4    7     1      -0.2071471154E-02       4    7    1        -0.1111570848E+00      0.2722761487E+00
          0                14           2             4    7     1      -0.1743473115E-02       4    7    1        -0.9355552588E-01      0.2291616280E+00
          0                15           2             4    7     1      -0.1469099444E-02       4    7    1        -0.7883177700E-01      0.1930962210E+00
          0                16           2             4    7     1      -0.1239094525E-02       4    7    1        -0.6648910615E-01      0.1628631970E+00
          0                17           2             4    7     1      -0.1045914009E-02       4    7    1        -0.5612262450E-01      0.1374707923E+00
          0                18           2             4    7     1      -0.8834220410E-03       4    7    1        -0.4740303612E-01      0.1161124060E+00
          0                19           2             4    7     1      -0.7465925719E-03       4    7    1        -0.4006060744E-01      0.9812733349E-01
          0                20           2             4    7     1      -0.6312637099E-03       4    7    1        -0.3387198333E-01      0.8296847272E-01
                                                   Max.-Head-Change                         Max.-Flux-Residual
  Residual-Control   Outer-Iter.   Inner-Iter.     Column Row Layer    Maximum-Head-Change  Column Row Layer    Maximum-Flux-Residual          L2-NORM 
          0                21           2             4    7     1      -0.5339594341E-03       4    7    1        -0.2865061881E-01      0.7017888705E-01
          0                22           2             4    7     1      -0.4517954618E-03       4    7    1        -0.2424172641E-01      0.5937942890E-01
          0                23           2             4    7     1      -0.3823792055E-03       4    7    1        -0.2051690689E-01      0.5025558807E-01
          0                24           2             4    7     1      -0.3236923785E-03       4    7    1        -0.1736784901E-01      0.4254205917E-01
          0                25           2             4    7     1      -0.2740814556E-03       4    7    1        -0.1470581687E-01      0.3602148617E-01
          0                26           2             4    7     1      -0.2321161493E-03       4    7    1        -0.1245405557E-01      0.3050586002E-01
          0                27           2             4    7     1      -0.1965993434E-03       4    7    1        -0.1054832363E-01      0.2583782305E-01
          0                28           2             4    7     1      -0.1665308451E-03       4    7    1        -0.8934947602E-02      0.2188590376E-01
          0                29           2             4    7     1      -0.1410743842E-03       4    7    1        -0.7569050941E-02      0.1854017816E-01
          0                30           2             4    7     1      -0.1195243748E-03       4    7    1        -0.6412770347E-02      0.1570790128E-01
                                                   Max.-Head-Change                         Max.-Flux-Residual
  Residual-Control   Outer-Iter.   Inner-Iter.     Column Row Layer    Maximum-Head-Change  Column Row Layer    Maximum-Flux-Residual          L2-NORM 
          0                31           1             4    7     1      -0.1012727061E-03       4    7    1        -0.5433473569E-02      0.1330914127E-01
          0                32           1             4    7     1      -0.8581106568E-04       4    7    1        -0.4603884152E-02      0.1127708527E-01

    ------------------------------------------------
       NWT REQUIRED           32 OUTER ITERATIONS 
       AND A TOTAL OF         62 INNER ITERATIONS.
    ------------------------------------------------

 NO OUTPUT CONTROL FOR STRESS PERIOD   20   TIME STEP   30



 STREAM LISTING     PERIOD     20   STEP       30

 LAYER ROW COL. STREAM  RCH.  FLOW INTO     FLOW TO   FLOW OUT OF   OVRLND.     DIRECT     STREAM       STREAM     STREAM     STREAM   STREAMBED  STREAMBED
                SEG.NO.  NO.  STRM. RCH.    AQUIFER    STRM. RCH.    RUNOFF     PRECIP       ET          HEAD       DEPTH      WIDTH   CONDCTNC.   GRADIENT

   1    1    1     1     1    4.3035E+01  3.1412E-01   4.2721E+01  0.000E+00  0.000E+00  0.000E+00  1.09440E+03  1.353E+00  1.604E+01  7.216E-02  1.451E+00
   1    2    2     1     2    4.2721E+01  4.8658E-01   4.2235E+01  0.000E+00  0.000E+00  0.000E+00  1.08941E+03  1.350E+00  1.598E+01  1.118E-01  1.450E+00
   1    3    3     1     3    4.2235E+01  4.1507E-01   4.1819E+01  0.000E+00  0.000E+00  0.000E+00  1.08377E+03  1.347E+00  1.591E+01  9.548E-02  1.449E+00
   1    3    4     1     4    4.1819E+01  3.8230E-01   4.1437E+01  0.000E+00  0.000E+00  0.000E+00  1.07875E+03  1.344E+00  1.586E+01  8.800E-02  1.448E+00
   1    4    5     2     1    3.9437E+01  3.5748E-01   3.9080E+01  0.000E+00  0.000E+00  0.000E+00  1.07352E+03  1.583E+00  1.200E+01  7.800E-02  1.528E+00
   1    5    6     2     2    3.9080E+01  2.7453E-01   3.8805E+01  0.000E+00  0.000E+00  0.000E+00  1.06808E+03  1.575E+00  1.200E+01  6.000E-02  1.525E+00
   1    6    6     2     3    3.8805E+01  2.7413E-01   3.8531E+01  0.000E+00  0.000E+00  0.000E+00  1.06336E+03  1.569E+00  1.200E+01  6.000E-02  1.523E+00
   1    7    6     2     4    3.8531E+01  2.7372E-01   3.8257E+01  0.000E+00  0.000E+00  0.000E+00  1.05864E+03  1.562E+00  1.200E+01  6.000E-02  1.521E+00
   1    8    6     2     5    3.8257E+01  2.7332E-01   3.7984E+01  0.000E+00  0.000E+00  0.000E+00  1.05391E+03  1.555E+00  1.200E+01  6.000E-02  1.518E+00
   1    3    5     3     1    2.0000E+00  2.8252E-01   1.7175E+00  0.000E+00  0.000E+00  0.000E+00  1.07555E+03  1.909E+00  9.636E+00  7.227E-02  1.955E+00
   1    3    6     3     2    1.7175E+00  2.4905E-01   1.4684E+00  0.000E+00  0.000E+00  0.000E+00  1.07264E+03  1.727E+00  8.909E+00  6.682E-02  1.864E+00
   1    3    7     3     3    1.4684E+00  1.9718E-01   1.2712E+00  0.000E+00  0.000E+00  0.000E+00  1.06987E+03  1.555E+00  8.218E+00  5.547E-02  1.777E+00
   1    4    8     3     4    1.2712E+00  2.2567E-01   1.0456E+00  0.000E+00  0.000E+00  0.000E+00  1.06682E+03  1.364E+00  7.455E+00  6.709E-02  1.682E+00
   1    5    8     3     5    1.0456E+00  1.5790E-01   8.8768E-01  0.000E+00  0.000E+00  0.000E+00  1.06362E+03  1.164E+00  6.655E+00  4.991E-02  1.582E+00
   1    6    8     3     6    8.8768E-01  5.5980E-02   8.3170E-01  0.000E+00  0.000E+00  0.000E+00  1.06158E+03  1.036E+00  6.145E+00  1.844E-02  1.518E+00
   1    5   10     4     1    1.0000E+01  9.0919E-02   9.9091E+00  0.000E+00  0.000E+00  0.000E+00  1.07836E+03  6.368E-01  1.000E+01  2.500E-02  1.212E+00
   1    5    9     4     2    9.9091E+00  1.8158E-01   9.7275E+00  0.000E+00  0.000E+00  0.000E+00  1.07154E+03  6.315E-01  1.000E+01  5.000E-02  1.211E+00
   1    6    8     4     3    9.7275E+00  1.2689E-01   9.6006E+00  0.000E+00  0.000E+00  0.000E+00  1.06381E+03  6.256E-01  1.000E+01  3.500E-02  1.209E+00
   1    6    8     5     1    1.0432E+01  2.2686E-01   1.0205E+01  0.000E+00  0.000E+00  0.000E+00  1.05868E+03  6.790E-01  1.542E+01  6.166E-02  1.226E+00
   1    7    7     5     2    1.0205E+01  2.7894E-01   9.9265E+00  0.000E+00  0.000E+00  0.000E+00  1.05417E+03  6.732E-01  1.519E+01  7.594E-02  1.224E+00
   1    8    7     5     3    9.9265E+00  1.9221E-01   9.7343E+00  0.000E+00  0.000E+00  0.000E+00  1.04992E+03  6.676E-01  1.497E+01  5.241E-02  1.223E+00
   1    8    6     5     4    9.7343E+00  1.3577E-01   9.5985E+00  0.000E+00  0.000E+00  0.000E+00  1.04691E+03  6.637E-01  1.482E+01  3.706E-02  1.221E+00
   1    9    6     6     1    4.7583E+01  2.8760E-01   4.7295E+01  0.000E+00  0.000E+00  0.000E+00  1.04452E+03  1.793E+00  1.200E+01  6.000E-02  1.598E+00
   1   10    7     6     2    4.7295E+01  2.8721E-01   4.7008E+01  0.000E+00  0.000E+00  0.000E+00  1.03997E+03  1.787E+00  1.200E+01  6.000E-02  1.596E+00
   1   11    7     6     3    4.7008E+01  2.8681E-01   4.6721E+01  0.000E+00  0.000E+00  0.000E+00  1.03542E+03  1.780E+00  1.200E+01  6.000E-02  1.593E+00
   1   12    7     6     4    4.6721E+01  2.8642E-01   4.6434E+01  0.000E+00  0.000E+00  0.000E+00  1.03086E+03  1.774E+00  1.200E+01  6.000E-02  1.591E+00
   1   13    7     6     5    4.6434E+01  1.4432E-02   4.6420E+01  0.000E+00  0.000E+00  0.000E+00  1.02768E+03  1.770E+00  1.200E+01  2.400E-02  2.004E-01
   1   14    9     7     1    1.5000E+02  1.3329E+00   1.4867E+02  0.000E+00  0.000E+00  0.000E+00  1.03987E+03  2.288E+00  5.529E+01  5.593E-01  7.944E-01
   1   13    8     7     2    1.4867E+02  1.8318E+00   1.4684E+02  0.000E+00  0.000E+00  0.000E+00  1.03478E+03  2.279E+00  5.526E+01  6.148E-01  9.932E-01
   1   13    7     7     3    1.4684E+02  1.4586E+00   1.4538E+02  0.000E+00  0.000E+00  0.000E+00  1.02969E+03  2.271E+00  5.522E+01  5.585E-01  8.706E-01
   1   13    6     8     1    1.9180E+02  9.9217E-01   1.9080E+02  0.000E+00  0.000E+00  0.000E+00  1.02496E+03  3.086E+00  4.474E+01  4.560E-01  7.253E-01
   1   13    5     8     2    1.9080E+02  2.1205E-01   1.9059E+02  0.000E+00  0.000E+00  0.000E+00  1.01871E+03  3.082E+00  4.469E+01  4.554E-01  1.552E-01
   1   13    4     8     3    1.9059E+02 -2.4459E+00   1.9304E+02  0.000E+00  0.000E+00  0.000E+00  1.01246E+03  3.089E+00  4.479E+01  4.564E+00 -1.786E-01
   1   13    3     8     4    1.9304E+02 -3.5763E+00   1.9661E+02  0.000E+00  0.000E+00  0.000E+00  1.00623E+03  3.107E+00  4.505E+01  4.591E+00 -2.597E-01
   1   13    2     8     5    1.9661E+02 -2.7394E+00   1.9935E+02  0.000E+00  0.000E+00  0.000E+00  1.00000E+03  3.126E+00  4.532E+01  4.619E+00 -1.977E-01
   1   13    1     8     6    1.9935E+02 -2.1017E+00   2.0146E+02  0.000E+00  0.000E+00  0.000E+00  9.95015E+02  3.140E+00  4.553E+01  2.784E+00 -2.516E-01





UNSATURATED ZONE PACKAGE VOLUMETRIC BUDGET FOR  TIME STEP    30 STRESS PERIOD   20
  ------------------------------------------------------------------------------



     CUMULATIVE VOLUMES      L**3       RATES FOR THIS TIME STEP      L**3/T
     ------------------                 ------------------------

           IN:                                      IN:
           ---                                      ---
        INFILTRATION =   836468392.8609          INFILTRATION =          88.1754

          OUT:                                     OUT:
          ----                                     ----
              UZF ET =   692351287.3943                UZF ET =          60.7922
        UZF RECHARGE =    72024631.8946          UZF RECHARGE =       0.0000E+00

            IN - OUT =    72092473.5720              IN - OUT =          27.3832

          STORAGE:                                 STORAGE:
          --------                                 --------
      STORAGE CHANGE =    72092461.8017        STORAGE CHANGE =          27.3832

 PERCENT DISCREPANCY IS DIFFERENCE BETWEEN IN-OUT MINUS CHANGE IN STORAGE
 DIVIDED BY THE AVERAGE OF IN AND OUT TIMES 100

 PERCENT DISCREPANCY =           0.00     PERCENT DISCREPANCY =           0.00






1
  VOLUMETRIC BUDGET FOR AGRICULTURAL FIELDS AT  END OF TIME STEP   30, STRESS PERIOD  20
  ------------------------------------------------------------------------------

     CUMULATIVE VOLUMES      L**3       RATES FOR THIS TIME STEP      L**3/T
     ------------------                 ------------------------

           IN:                                      IN:
           ---                                      ---
           AG WELLS      =   794044800.0000             AG WELLS      =          87.3279
      DIVERSION SEGMENTS =           0.0000        DIVERSION SEGMENTS =           0.0000
           GW IRRIGATION =           0.0000             GW IRRIGATION =           0.0000
           SW IRRIGATION =           0.0000             SW IRRIGATION =           0.0000
        SYSTEM LOSSES GW =           0.0000          SYSTEM LOSSES GW =           0.0000
        SYSTEM LOSSES SW =           0.0000          SYSTEM LOSSES SW =           0.0000

                TOTAL IN =   794044800.0000                  TOTAL IN =          87.3279

          OUT:                                     OUT:
          ----                                     ----
           AG WELLS      =           0.0000             AG WELLS      =           0.0000
      DIVERSION SEGMENTS =           0.0000        DIVERSION SEGMENTS =           0.0000
           GW IRRIGATION =   794044800.0000             GW IRRIGATION =          87.3279
           SW IRRIGATION =           0.0000             SW IRRIGATION =           0.0000
        SYSTEM LOSSES GW =           0.0000          SYSTEM LOSSES GW =           0.0000
        SYSTEM LOSSES SW =           0.0000          SYSTEM LOSSES SW =           0.0000

               TOTAL OUT =   794044800.0000                 TOTAL OUT =          87.3279

                IN - OUT =           0.0000                  IN - OUT =           0.0000

     PERCENT DISCREPANCY =           0.00         PERCENT DISCREPANCY =           0.00



1
  VOLUMETRIC BUDGET FOR ENTIRE MODEL AT END OF TIME STEP   30, STRESS PERIOD  20
  ------------------------------------------------------------------------------

     CUMULATIVE VOLUMES      L**3       RATES FOR THIS TIME STEP      L**3/T
     ------------------                 ------------------------

           IN:                                      IN:
           ---                                      ---
             STORAGE     =   937790272.0000               STORAGE     =          86.2639
       CONSTANT HEAD     =           0.0000         CONSTANT HEAD     =           0.0000
     HEAD DEP BOUNDS     =    14287213.0000       HEAD DEP BOUNDS     =           0.2856
      STREAM LEAKAGE     =   629925632.0000        STREAM LEAKAGE     =          12.4427
        UZF RECHARGE     =    72024584.0000          UZF RECHARGE     =           0.0000
               GW ET     =           0.0000                 GW ET     =           0.0000
     SURFACE LEAKAGE     =           0.0000       SURFACE LEAKAGE     =           0.0000
           AG WELLS      =           0.0000             AG WELLS      =           0.0000

                TOTAL IN =  1654027776.0000                  TOTAL IN =          98.9922

          OUT:                                     OUT:
          ----                                     ----
             STORAGE     =   312650304.0000               STORAGE     =           0.2833
       CONSTANT HEAD     =           0.0000         CONSTANT HEAD     =           0.0000
     HEAD DEP BOUNDS     =    14756210.0000       HEAD DEP BOUNDS     =           0.2953
      STREAM LEAKAGE     =   515094176.0000        STREAM LEAKAGE     =          10.8633
        UZF RECHARGE     =           0.0000          UZF RECHARGE     =           0.0000
               GW ET     =    17477974.0000                 GW ET     =           0.2205
     SURFACE LEAKAGE     =           0.0000       SURFACE LEAKAGE     =           0.0000
           AG WELLS      =   794044800.0000             AG WELLS      =          87.3279

               TOTAL OUT =  1654023424.0000                 TOTAL OUT =          98.9902

                IN - OUT =        4352.0000                  IN - OUT =       1.9379E-03

     PERCENT DISCREPANCY =           0.00         PERCENT DISCREPANCY =           0.00






         TIME SUMMARY AT END OF TIME STEP   30 IN STRESS PERIOD   20
                    SECONDS     MINUTES      HOURS       DAYS        YEARS
                    -----------------------------------------------------------
   TIME STEP LENGTH  87667.      1461.1      24.352      1.0147     2.77799E-03
 STRESS PERIOD TIME 2.63000E+06  43833.      730.56      30.440     8.33397E-02
         TOTAL TIME 5.00565E+07 8.34276E+05  13905.      579.36      1.5862    
1
1
                            STRESS PERIOD NO.   21, LENGTH =   2630000.    
                            -----------------------------------------------

                              NUMBER OF TIME STEPS =    30

                               MULTIPLIER FOR DELT =     1.000

                            INITIAL TIME STEP SIZE =   87666.66    

 REUSING NON-PARAMETER GHB CELLS FROM LAST STRESS PERIOD

      2 GHB CELLS

 REUSING STREAM SEGMENT DATA FROM LAST STRESS PERIOD



            AREAL INFILTRATION RATE
 READING ON UNIT   19 WITH FORMAT: (FREE)              

            1           2           3           4           5           6           7           8           9          10
 ........................................................................................................................
   1   1.0000E-10  2.0000E-10   0.000       0.000       0.000       0.000       0.000       0.000       0.000       0.000    
   2   2.0000E-10  1.0000E-10  2.0000E-10   0.000       0.000      8.0000E-10  8.0000E-10  5.0000E-10   0.000       0.000    
   3    0.000      5.0000E-10  1.0000E-10  1.0000E-10  8.0000E-10  8.0000E-10  5.0000E-10  5.0000E-10   0.000       0.000    
   4   8.0000E-10  5.0000E-10  1.0000E-10  1.0000E-10  1.0000E-10  1.0000E-10  1.0000E-10  1.0000E-10  2.0000E-10   0.000    
   5   8.0000E-10  5.0000E-10  1.0000E-10  1.0000E-10  1.0000E-10  1.0000E-10  1.0000E-10  1.0000E-10  1.0000E-10  1.0000E-10
   6   8.0000E-10  5.0000E-10  5.0000E-10  2.0000E-10  2.0000E-10  1.0000E-10  1.0000E-10  1.0000E-10  1.0000E-10  5.0000E-10
   7   8.0000E-10  5.0000E-10  5.0000E-10  2.0000E-10  2.0000E-10  1.0000E-10  1.0000E-10  2.0000E-10  2.0000E-10   0.000    
   8    0.000      5.0000E-10  5.0000E-10  2.0000E-10  2.0000E-10  1.0000E-10  1.0000E-10  2.0000E-10  5.0000E-10   0.000    
   9    0.000      5.0000E-10  5.0000E-10  2.0000E-10  2.0000E-10  1.0000E-10  1.0000E-10  2.0000E-10  5.0000E-10   0.000    
  10    0.000      5.0000E-10  5.0000E-10  2.0000E-10  2.0000E-10  1.0000E-10  1.0000E-10  2.0000E-10  5.0000E-10  8.0000E-10
  11    0.000      1.0000E-10  1.0000E-10  1.0000E-10  1.0000E-10  1.0000E-10  1.0000E-10  2.0000E-10  5.0000E-10   0.000    
  12   1.0000E-10  1.0000E-10  1.0000E-10  1.0000E-10  1.0000E-10  1.0000E-10  1.0000E-10  1.0000E-10  2.0000E-10   0.000    
  13   1.0000E-10  1.0000E-10  2.0000E-10  2.0000E-10  2.0000E-10  2.0000E-10  2.0000E-10  1.0000E-10  1.0000E-10   0.000    
  14    0.000      2.0000E-10  5.0000E-10  5.0000E-10  5.0000E-10  5.0000E-10  5.0000E-10  2.0000E-10  1.0000E-10   0.000    
  15    0.000       0.000      8.0000E-10  8.0000E-10  8.0000E-10  8.0000E-10   0.000       0.000       0.000       0.000    

                  ET RATE =  3.250000E-07

 USING ET EXTINCTION DEPTH FROM PREVIOUS STRESS PERIOD. CURRENT PERIOD IS:      21

 USING EXTINCTION WATER CONTENT FROM PREVIOUS STRESS PERIOD. CURRENT PERIOD IS:      21

 USING AIR ENTRY PRESSURE FROM PREVIOUS STRESS PERIOD. CURRENT PERIOD IS:      21

 USING ROOT PRESSURE HEAD FROM PREVIOUS STRESS PERIOD. CURRENT PERIOD IS:      21

 USING ROOT ACTIVITY FROM PREVIOUS STRESS PERIOD. CURRENT PERIOD IS:      21

 PROCESSING AG STRESS PERIOD DATA

 READING AG STRESS PERIOD DATA

 READING IRRIGATION WELL

 END PROCESSING AG STRESS PERIOD DATA OPTIONS
 
 SOLVING FOR HEAD 
                                                   Max.-Head-Change                         Max.-Flux-Residual
  Residual-Control   Outer-Iter.   Inner-Iter.     Column Row Layer    Maximum-Head-Change  Column Row Layer    Maximum-Flux-Residual          L2-NORM 
          0                 1           2             4    7     1      -0.6831394699E-01       4    7    1        -0.3620950849E+01      0.9751941354E+01
          0                 2           2             4    7     1       0.6644937717E-02       4    7    1         0.3620849019E+00      0.9751020818E+00
          0                 3           2             4    7     1      -0.4524970565E-03       4    7    1        -0.2534605044E-01      0.6825002193E-01
          0                 4           1             4    7     1       0.1800527399E-04       4    7    1         0.1036654449E-02      0.2791011214E-02

    ------------------------------------------------
       NWT REQUIRED            4 OUTER ITERATIONS 
       AND A TOTAL OF          7 INNER ITERATIONS.
    ------------------------------------------------

 NO OUTPUT CONTROL FOR STRESS PERIOD   21   TIME STEP    1
 
 SOLVING FOR HEAD 
                                                   Max.-Head-Change                         Max.-Flux-Residual
  Residual-Control   Outer-Iter.   Inner-Iter.     Column Row Layer    Maximum-Head-Change  Column Row Layer    Maximum-Flux-Residual          L2-NORM 
          0                 1           2             5    8     1       0.1360995028E+00       5    8    1         0.7411098542E+01      0.1752507533E+02
          0                 2           2             5    6     1      -0.1607987488E+00       5    8    1        -0.8861077028E+01      0.2144049116E+02
          0                 3           2             5    6     1       0.1094970815E-01       5    8    1         0.6202697865E+00      0.1500819881E+01
          0                 4           2             5    6     1      -0.4356995612E-03       5    8    1        -0.2536909684E-01      0.6138367256E-01
          0                 5           1             5    6     1       0.5372356536E-05       5    8    1         0.3215046097E-03      0.7779220575E-03

    ------------------------------------------------
       NWT REQUIRED            5 OUTER ITERATIONS 
       AND A TOTAL OF          9 INNER ITERATIONS.
    ------------------------------------------------

 NO OUTPUT CONTROL FOR STRESS PERIOD   21   TIME STEP    2
 
 SOLVING FOR HEAD 
                                                   Max.-Head-Change                         Max.-Flux-Residual
  Residual-Control   Outer-Iter.   Inner-Iter.     Column Row Layer    Maximum-Head-Change  Column Row Layer    Maximum-Flux-Residual          L2-NORM 
          0                 1           2             5    8     1       0.1343860628E+00       5    8    1         0.7314424183E+01      0.1739293063E+02
          0                 2           2             5    7     1      -0.1607914881E+00       5    8    1        -0.8851409849E+01      0.2143383722E+02
          0                 3           2             5    7     1       0.1094891003E-01       5    8    1         0.6195769159E+00      0.1500314371E+01
          0                 4           2             5    7     1      -0.4356678646E-03       5    8    1        -0.2534075819E-01      0.6136300190E-01
          0                 5           1             5    7     1       0.5371978934E-05       5    8    1         0.3211454668E-03      0.7776628414E-03

    ------------------------------------------------
       NWT REQUIRED            5 OUTER ITERATIONS 
       AND A TOTAL OF          9 INNER ITERATIONS.
    ------------------------------------------------

 NO OUTPUT CONTROL FOR STRESS PERIOD   21   TIME STEP    3
 
 SOLVING FOR HEAD 
                                                   Max.-Head-Change                         Max.-Flux-Residual
  Residual-Control   Outer-Iter.   Inner-Iter.     Column Row Layer    Maximum-Head-Change  Column Row Layer    Maximum-Flux-Residual          L2-NORM 
          0                 1           2             5    8     1       0.1328073522E+00       5    8    1         0.7225362742E+01      0.1727164290E+02
          0                 2           2             5    7     1      -0.1607930377E+00       5    8    1        -0.8842503953E+01      0.2142771571E+02
          0                 3           2             5    7     1       0.1094901412E-01       5    8    1         0.6189535372E+00      0.1499885805E+01
          0                 4           2             5    7     1      -0.4356720130E-03       5    8    1        -0.2531526181E-01      0.6134547342E-01
          0                 5           1             5    7     1       0.5372030124E-05       5    8    1         0.3208223636E-03      0.7774362258E-03

    ------------------------------------------------
       NWT REQUIRED            5 OUTER ITERATIONS 
       AND A TOTAL OF          9 INNER ITERATIONS.
    ------------------------------------------------

 NO OUTPUT CONTROL FOR STRESS PERIOD   21   TIME STEP    4
 
 SOLVING FOR HEAD 
                                                   Max.-Head-Change                         Max.-Flux-Residual
  Residual-Control   Outer-Iter.   Inner-Iter.     Column Row Layer    Maximum-Head-Change  Column Row Layer    Maximum-Flux-Residual          L2-NORM 
          0                 1           2             5    8     1       0.1313529925E+00       5    8    1         0.7143309026E+01      0.1716004641E+02
          0                 2           2             5    7     1      -0.1607935474E+00       5    8    1        -0.8834298817E+01      0.2142210162E+02
          0                 3           2             5    7     1       0.1094904750E-01       5    8    1         0.6183792080E+00      0.1499492757E+01
          0                 4           2             5    7     1      -0.4356733479E-03       5    8    1        -0.2529177158E-01      0.6132940110E-01
          0                 5           1             5    7     1       0.5372046591E-05       5    8    1         0.3205246430E-03      0.7772356141E-03

    ------------------------------------------------
       NWT REQUIRED            5 OUTER ITERATIONS 
       AND A TOTAL OF          9 INNER ITERATIONS.
    ------------------------------------------------

 NO OUTPUT CONTROL FOR STRESS PERIOD   21   TIME STEP    5
 
 SOLVING FOR HEAD 
                                                   Max.-Head-Change                         Max.-Flux-Residual
  Residual-Control   Outer-Iter.   Inner-Iter.     Column Row Layer    Maximum-Head-Change  Column Row Layer    Maximum-Flux-Residual          L2-NORM 
          0                 1           2             5    8     1       0.1300133609E+00       5    8    1         0.7067718198E+01      0.1705746315E+02
          0                 2           2             5    7     1      -0.1607932453E+00       5    8    1        -0.8826739958E+01      0.2141695880E+02
          0                 3           2             5    7     1       0.1094902571E-01       5    8    1         0.6178501150E+00      0.1499132692E+01
          0                 4           2             5    7     1      -0.4356724866E-03       5    8    1        -0.2527013151E-01      0.6131467636E-01
          0                 5           1             5    7     1       0.5372035949E-05       5    8    1         0.3202504136E-03      0.7770459093E-03

    ------------------------------------------------
       NWT REQUIRED            5 OUTER ITERATIONS 
       AND A TOTAL OF          9 INNER ITERATIONS.
    ------------------------------------------------

 NO OUTPUT CONTROL FOR STRESS PERIOD   21   TIME STEP    6
 
 SOLVING FOR HEAD 
                                                   Max.-Head-Change                         Max.-Flux-Residual
  Residual-Control   Outer-Iter.   Inner-Iter.     Column Row Layer    Maximum-Head-Change  Column Row Layer    Maximum-Flux-Residual          L2-NORM 
          0                 1           2             5    8     1       0.1287797958E+00       5    8    1         0.6998099123E+01      0.1696315143E+02
          0                 2           2             5    7     1      -0.1607923421E+00       5    8    1        -0.8819778263E+01      0.2141225577E+02
          0                 3           2             5    7     1       0.1094896309E-01       5    8    1         0.6173628206E+00      0.1498803416E+01
          0                 4           2             5    7     1      -0.4356700002E-03       5    8    1        -0.2525020103E-01      0.6130121065E-01
          0                 5           1             5    7     1       0.5372005145E-05       5    8    1         0.3199978271E-03      0.7768754848E-03

    ------------------------------------------------
       NWT REQUIRED            5 OUTER ITERATIONS 
       AND A TOTAL OF          9 INNER ITERATIONS.
    ------------------------------------------------

 NO OUTPUT CONTROL FOR STRESS PERIOD   21   TIME STEP    7
 
 SOLVING FOR HEAD 
                                                   Max.-Head-Change                         Max.-Flux-Residual
  Residual-Control   Outer-Iter.   Inner-Iter.     Column Row Layer    Maximum-Head-Change  Column Row Layer    Maximum-Flux-Residual          L2-NORM 
          0                 1           2             5    8     1       0.1276439409E+00       5    8    1         0.6933979378E+01      0.1687643800E+02
          0                 2           2             5    7     1      -0.1607910047E+00       5    8    1        -0.8813366492E+01      0.2140796138E+02
          0                 3           2             5    7     1       0.1094887099E-01       5    8    1         0.6169140181E+00      0.1498502743E+01
          0                 4           2             5    7     1      -0.4356663401E-03       5    8    1        -0.2523184486E-01      0.6128891364E-01
          0                 5           1             5    7     1       0.5371960227E-05       5    8    1         0.3197652022E-03      0.7767190600E-03

    ------------------------------------------------
       NWT REQUIRED            5 OUTER ITERATIONS 
       AND A TOTAL OF          9 INNER ITERATIONS.
    ------------------------------------------------

 NO OUTPUT CONTROL FOR STRESS PERIOD   21   TIME STEP    8
 
 SOLVING FOR HEAD 
                                                   Max.-Head-Change                         Max.-Flux-Residual
  Residual-Control   Outer-Iter.   Inner-Iter.     Column Row Layer    Maximum-Head-Change  Column Row Layer    Maximum-Flux-Residual          L2-NORM 
          0                 1           2             5    8     1       0.1265984225E+00       5    8    1         0.6874941281E+01      0.1679672883E+02
          0                 2           2             5    7     1      -0.1607894176E+00       5    8    1        -0.8807462876E+01      0.2140404938E+02
          0                 3           2             5    7     1       0.1094876196E-01       5    8    1         0.6165007840E+00      0.1498228838E+01
          0                 4           2             5    7     1      -0.4356620067E-03       5    8    1        -0.2521494349E-01      0.6127771247E-01
          0                 5           1             5    7     1       0.5371906572E-05       5    8    1         0.3195510144E-03      0.7765781971E-03

    ------------------------------------------------
       NWT REQUIRED            5 OUTER ITERATIONS 
       AND A TOTAL OF          9 INNER ITERATIONS.
    ------------------------------------------------

 NO OUTPUT CONTROL FOR STRESS PERIOD   21   TIME STEP    9
 
 SOLVING FOR HEAD 
                                                   Max.-Head-Change                         Max.-Flux-Residual
  Residual-Control   Outer-Iter.   Inner-Iter.     Column Row Layer    Maximum-Head-Change  Column Row Layer    Maximum-Flux-Residual          L2-NORM 
          0                 1           2             5    8     1       0.1256363363E+00       5    8    1         0.6820594740E+01      0.1672346728E+02
          0                 2           2             5    7     1      -0.1607876845E+00       5    8    1        -0.8802028407E+01      0.2140049340E+02
          0                 3           2             5    7     1       0.1094864306E-01       5    8    1         0.6161203880E+00      0.1497979861E+01
          0                 4           2             5    7     1      -0.4356572793E-03       5    8    1        -0.2519938519E-01      0.6126753066E-01
          0                 5           1             5    7     1       0.5371848436E-05       5    8    1         0.3193538441E-03      0.7764482809E-03

    ------------------------------------------------
       NWT REQUIRED            5 OUTER ITERATIONS 
       AND A TOTAL OF          9 INNER ITERATIONS.
    ------------------------------------------------

 NO OUTPUT CONTROL FOR STRESS PERIOD   21   TIME STEP   10
 
 SOLVING FOR HEAD 
                                                   Max.-Head-Change                         Max.-Flux-Residual
  Residual-Control   Outer-Iter.   Inner-Iter.     Column Row Layer    Maximum-Head-Change  Column Row Layer    Maximum-Flux-Residual          L2-NORM 
          0                 1           2             5    8     1       0.1247516268E+00       5    8    1         0.6770597342E+01      0.1665616940E+02
          0                 2           2             4    7     1      -0.1607869946E+00       5    8    1        -0.8797028844E+01      0.2139727025E+02
          0                 3           2             4    7     1       0.1094859083E-01       5    8    1         0.6157704334E+00      0.1497754175E+01
          0                 4           2             4    7     1      -0.4356552117E-03       5    8    1        -0.2518507197E-01      0.6125830178E-01
          0                 5           1             4    7     1       0.5371816848E-05       5    8    1         0.3191724436E-03      0.7763355890E-03

    ------------------------------------------------
       NWT REQUIRED            5 OUTER ITERATIONS 
       AND A TOTAL OF          9 INNER ITERATIONS.
    ------------------------------------------------

 NO OUTPUT CONTROL FOR STRESS PERIOD   21   TIME STEP   11
 
 SOLVING FOR HEAD 
                                                   Max.-Head-Change                         Max.-Flux-Residual
  Residual-Control   Outer-Iter.   Inner-Iter.     Column Row Layer    Maximum-Head-Change  Column Row Layer    Maximum-Flux-Residual          L2-NORM 
          0                 1           2             5    8     1       0.1239381902E+00       5    8    1         0.6724604015E+01      0.1659436879E+02
          0                 2           2             4    7     1      -0.1608600762E+00       5    8    1        -0.8792429680E+01      0.2139435731E+02
          0                 3           2             4    7     1       0.1095356607E-01       5    8    1         0.6154485050E+00      0.1497550209E+01
          0                 4           2             4    7     1      -0.4358531879E-03       5    8    1        -0.2517190502E-01      0.6124995925E-01
          0                 5           1             4    7     1       0.5374258323E-05       5    8    1         0.3190055854E-03      0.7762259012E-03

    ------------------------------------------------
       NWT REQUIRED            5 OUTER ITERATIONS 
       AND A TOTAL OF          9 INNER ITERATIONS.
    ------------------------------------------------

 NO OUTPUT CONTROL FOR STRESS PERIOD   21   TIME STEP   12
 
 SOLVING FOR HEAD 
                                                   Max.-Head-Change                         Max.-Flux-Residual
  Residual-Control   Outer-Iter.   Inner-Iter.     Column Row Layer    Maximum-Head-Change  Column Row Layer    Maximum-Flux-Residual          L2-NORM 
          0                 1           2             5    8     1       0.1231908258E+00       5    8    1         0.6682321633E+01      0.1653765790E+02
          0                 2           2             4    7     1      -0.1609295529E+00       5    8    1        -0.8788201604E+01      0.2139173432E+02
          0                 3           2             4    7     1       0.1095829591E-01       5    8    1         0.6151525510E+00      0.1497366542E+01
          0                 4           2             4    7     1      -0.4360413984E-03       5    8    1        -0.2515980041E-01      0.6124244773E-01
          0                 5           1             4    7     1       0.5376578711E-05       5    8    1         0.3188521741E-03      0.7761311773E-03

    ------------------------------------------------
       NWT REQUIRED            5 OUTER ITERATIONS 
       AND A TOTAL OF          9 INNER ITERATIONS.
    ------------------------------------------------

 NO OUTPUT CONTROL FOR STRESS PERIOD   21   TIME STEP   13
 
 SOLVING FOR HEAD 
                                                   Max.-Head-Change                         Max.-Flux-Residual
  Residual-Control   Outer-Iter.   Inner-Iter.     Column Row Layer    Maximum-Head-Change  Column Row Layer    Maximum-Flux-Residual          L2-NORM 
          0                 1           2             5    8     1       0.1225044858E+00       5    8    1         0.6643464989E+01      0.1648566002E+02
          0                 2           2             4    7     1      -0.1609956396E+00       5    8    1        -0.8784316095E+01      0.2138938278E+02
          0                 3           2             4    7     1       0.1096279497E-01       5    8    1         0.6148805751E+00      0.1497201881E+01
          0                 4           2             4    7     1      -0.4362204262E-03       5    8    1        -0.2514867654E-01      0.6123571392E-01
          0                 5           1             4    7     1       0.5378786075E-05       5    8    1         0.3187112145E-03      0.7761686247E-03

    ------------------------------------------------
       NWT REQUIRED            5 OUTER ITERATIONS 
       AND A TOTAL OF          9 INNER ITERATIONS.
    ------------------------------------------------

 NO OUTPUT CONTROL FOR STRESS PERIOD   21   TIME STEP   14
 
 SOLVING FOR HEAD 
                                                   Max.-Head-Change                         Max.-Flux-Residual
  Residual-Control   Outer-Iter.   Inner-Iter.     Column Row Layer    Maximum-Head-Change  Column Row Layer    Maximum-Flux-Residual          L2-NORM 
          0                 1           2             5    8     1       0.1218749461E+00       5    8    1         0.6607795696E+01      0.1643801916E+02
          0                 2           2             4    7     1      -0.1610585255E+00       5    8    1        -0.8780749315E+01      0.2138728395E+02
          0                 3           2             4    7     1       0.1096707613E-01       5    8    1         0.6146309089E+00      0.1497054909E+01
          0                 4           2             4    7     1      -0.4363907828E-03       5    8    1        -0.2513846515E-01      0.6122970281E-01
          0                 5           1             4    7     1       0.5380886689E-05       5    8    1         0.3185817977E-03      0.7759694815E-03

    ------------------------------------------------
       NWT REQUIRED            5 OUTER ITERATIONS 
       AND A TOTAL OF          9 INNER ITERATIONS.
    ------------------------------------------------

 NO OUTPUT CONTROL FOR STRESS PERIOD   21   TIME STEP   15
 
 SOLVING FOR HEAD 
                                                   Max.-Head-Change                         Max.-Flux-Residual
  Residual-Control   Outer-Iter.   Inner-Iter.     Column Row Layer    Maximum-Head-Change  Column Row Layer    Maximum-Flux-Residual          L2-NORM 
          0                 1           2             5    8     1       0.1212977692E+00       5    8    1         0.6575063652E+01      0.1639442491E+02
          0                 2           2             4    7     1      -0.1611183904E+00       5    8    1        -0.8777476254E+01      0.2138542177E+02
          0                 3           2             4    7     1       0.1097115163E-01       5    8    1         0.6144018018E+00      0.1496924504E+01
          0                 4           2             4    7     1      -0.4365529560E-03       5    8    1        -0.2512909462E-01      0.6122436897E-01
          0                 5           1             4    7     1       0.5382886490E-05       5    8    1         0.3184630448E-03      0.7759037223E-03

    ------------------------------------------------
       NWT REQUIRED            5 OUTER ITERATIONS 
       AND A TOTAL OF          9 INNER ITERATIONS.
    ------------------------------------------------

 NO OUTPUT CONTROL FOR STRESS PERIOD   21   TIME STEP   16
 
 SOLVING FOR HEAD 
                                                   Max.-Head-Change                         Max.-Flux-Residual
  Residual-Control   Outer-Iter.   Inner-Iter.     Column Row Layer    Maximum-Head-Change  Column Row Layer    Maximum-Flux-Residual          L2-NORM 
          0                 1           2             5    8     1       0.1207692867E+00       5    8    1         0.6545062098E+01      0.1635458986E+02
          0                 2           2             4    7     1      -0.1611754173E+00       5    8    1        -0.8774476237E+01      0.2138378166E+02
          0                 3           2             4    7     1       0.1097503393E-01       5    8    1         0.6141918066E+00      0.1496809648E+01
          0                 4           2             4    7     1      -0.4367074413E-03       5    8    1        -0.2512050577E-01      0.6121967303E-01
          0                 5           1             4    7     1       0.5384791190E-05       5    8    1         0.3183541930E-03      0.7758508837E-03

    ------------------------------------------------
       NWT REQUIRED            5 OUTER ITERATIONS 
       AND A TOTAL OF          9 INNER ITERATIONS.
    ------------------------------------------------

 NO OUTPUT CONTROL FOR STRESS PERIOD   21   TIME STEP   17
 
 SOLVING FOR HEAD 
                                                   Max.-Head-Change                         Max.-Flux-Residual
  Residual-Control   Outer-Iter.   Inner-Iter.     Column Row Layer    Maximum-Head-Change  Column Row Layer    Maximum-Flux-Residual          L2-NORM 
          0                 1           2             5    8     1       0.1202857026E+00       5    8    1         0.6517577521E+01      0.1631824428E+02
          0                 2           2             4    7     1      -0.1612297918E+00       5    8    1        -0.8771727912E+01      0.2138234880E+02
          0                 3           2             4    7     1       0.1097873567E-01       5    8    1         0.6139994288E+00      0.1496709301E+01
          0                 4           2             4    7     1      -0.4368547413E-03       5    8    1        -0.2511263749E-01      0.6121556882E-01
          0                 5           1             4    7     1       0.5386607175E-05       5    8    1         0.3182544976E-03      0.7757898219E-03

    ------------------------------------------------
       NWT REQUIRED            5 OUTER ITERATIONS 
       AND A TOTAL OF          9 INNER ITERATIONS.
    ------------------------------------------------

 NO OUTPUT CONTROL FOR STRESS PERIOD   21   TIME STEP   18
 
 SOLVING FOR HEAD 
                                                   Max.-Head-Change                         Max.-Flux-Residual
  Residual-Control   Outer-Iter.   Inner-Iter.     Column Row Layer    Maximum-Head-Change  Column Row Layer    Maximum-Flux-Residual          L2-NORM 
          0                 1           2             5    8     1       0.1198440767E+00       5    8    1         0.6492444200E+01      0.1628513477E+02
          0                 2           2             4    7     1      -0.1612816372E+00       5    8    1        -0.8769214708E+01      0.2138110924E+02
          0                 3           2             4    7     1       0.1098226525E-01       5    8    1         0.6138235085E+00      0.1496622485E+01
          0                 4           2             4    7     1      -0.4369951910E-03       5    8    1        -0.2510544232E-01      0.6121201758E-01
          0                 5           1             4    7     1       0.5388339148E-05       5    8    1         0.3181632976E-03      0.7757447043E-03

    ------------------------------------------------
       NWT REQUIRED            5 OUTER ITERATIONS 
       AND A TOTAL OF          9 INNER ITERATIONS.
    ------------------------------------------------

 NO OUTPUT CONTROL FOR STRESS PERIOD   21   TIME STEP   19
 
 SOLVING FOR HEAD 
                                                   Max.-Head-Change                         Max.-Flux-Residual
  Residual-Control   Outer-Iter.   Inner-Iter.     Column Row Layer    Maximum-Head-Change  Column Row Layer    Maximum-Flux-Residual          L2-NORM 
          0                 1           2             5    8     1       0.1194411479E+00       5    8    1         0.6469478595E+01      0.1625503748E+02
          0                 2           2             4    7     1      -0.1613311217E+00       5    8    1        -0.8766918271E+01      0.2138005058E+02
          0                 3           2             4    7     1       0.1098563410E-01       5    8    1         0.6136627610E+00      0.1496548336E+01
          0                 4           2             4    7     1      -0.4371292448E-03       5    8    1        -0.2509886772E-01      0.6120898567E-01
          0                 5           1             4    7     1       0.5389992263E-05       5    8    1         0.3180799790E-03      0.7757067372E-03

    ------------------------------------------------
       NWT REQUIRED            5 OUTER ITERATIONS 
       AND A TOTAL OF          9 INNER ITERATIONS.
    ------------------------------------------------

 NO OUTPUT CONTROL FOR STRESS PERIOD   21   TIME STEP   20
 
 SOLVING FOR HEAD 
                                                   Max.-Head-Change                         Max.-Flux-Residual
  Residual-Control   Outer-Iter.   Inner-Iter.     Column Row Layer    Maximum-Head-Change  Column Row Layer    Maximum-Flux-Residual          L2-NORM 
          0                 1           2             5    8     1       0.1190741863E+00       5    8    1         0.6448527177E+01      0.1622774381E+02
          0                 2           2             4    7     1      -0.1613783909E+00       5    8    1        -0.8764823249E+01      0.2137916178E+02
          0                 3           2             4    7     1       0.1098885215E-01       5    8    1         0.6135161118E+00      0.1496486077E+01
          0                 4           2             4    7     1      -0.4372572978E-03       5    8    1        -0.2509286975E-01      0.6120644011E-01
          0                 5           1             4    7     1       0.5391571224E-05       5    8    1         0.3180039628E-03      0.7756744156E-03

    ------------------------------------------------
       NWT REQUIRED            5 OUTER ITERATIONS 
       AND A TOTAL OF          9 INNER ITERATIONS.
    ------------------------------------------------

 NO OUTPUT CONTROL FOR STRESS PERIOD   21   TIME STEP   21
 
 SOLVING FOR HEAD 
                                                   Max.-Head-Change                         Max.-Flux-Residual
  Residual-Control   Outer-Iter.   Inner-Iter.     Column Row Layer    Maximum-Head-Change  Column Row Layer    Maximum-Flux-Residual          L2-NORM 
          0                 1           2             5    8     1       0.1187405318E+00       5    8    1         0.6429440635E+01      0.1620306174E+02
          0                 2           2             4    7     1      -0.1614235690E+00       5    8    1        -0.8762914710E+01      0.2137843140E+02
          0                 3           2             4    7     1       0.1099192784E-01       5    8    1         0.6133825157E+00      0.1496434910E+01
          0                 4           2             4    7     1      -0.4373796864E-03       5    8    1        -0.2508740566E-01      0.6120434714E-01
          0                 5           1             4    7     1       0.5393080288E-05       5    8    1         0.3179347225E-03      0.7756500871E-03

    ------------------------------------------------
       NWT REQUIRED            5 OUTER ITERATIONS 
       AND A TOTAL OF          9 INNER ITERATIONS.
    ------------------------------------------------

 NO OUTPUT CONTROL FOR STRESS PERIOD   21   TIME STEP   22
 
 SOLVING FOR HEAD 
                                                   Max.-Head-Change                         Max.-Flux-Residual
  Residual-Control   Outer-Iter.   Inner-Iter.     Column Row Layer    Maximum-Head-Change  Column Row Layer    Maximum-Flux-Residual          L2-NORM 
          0                 1           2             5    8     1       0.1184380119E+00       5    8    1         0.6412096584E+01      0.1618081174E+02
          0                 2           2             4    7     1      -0.1614667862E+00       5    8    1        -0.8761180417E+01      0.2137784970E+02
          0                 3           2             4    7     1       0.1099487004E-01       5    8    1         0.6132611161E+00      0.1496394152E+01
          0                 4           2             4    7     1      -0.4374967629E-03       5    8    1        -0.2508244040E-01      0.6120268094E-01
          0                 5           1             4    7     1       0.5394523711E-05       5    8    1         0.3178717961E-03      0.7756344578E-03

    ------------------------------------------------
       NWT REQUIRED            5 OUTER ITERATIONS 
       AND A TOTAL OF          9 INNER ITERATIONS.
    ------------------------------------------------

 NO OUTPUT CONTROL FOR STRESS PERIOD   21   TIME STEP   23
 
 SOLVING FOR HEAD 
                                                   Max.-Head-Change                         Max.-Flux-Residual
  Residual-Control   Outer-Iter.   Inner-Iter.     Column Row Layer    Maximum-Head-Change  Column Row Layer    Maximum-Flux-Residual          L2-NORM 
          0                 1           2             5    8     1       0.1181642017E+00       5    8    1         0.6396359079E+01      0.1616082439E+02
          0                 2           2             4    7     1      -0.1615081517E+00       5    8    1        -0.8759606775E+01      0.2137740637E+02
          0                 3           2             4    7     1       0.1099768620E-01       5    8    1         0.6131509615E+00      0.1496363081E+01
          0                 4           2             4    7     1      -0.4376088233E-03       5    8    1        -0.2507793509E-01      0.6120141037E-01
          0                 5           1             4    7     1       0.5395905527E-05       5    8    1         0.3178146933E-03      0.7756108479E-03

    ------------------------------------------------
       NWT REQUIRED            5 OUTER ITERATIONS 
       AND A TOTAL OF          9 INNER ITERATIONS.
    ------------------------------------------------

 NO OUTPUT CONTROL FOR STRESS PERIOD   21   TIME STEP   24
 
 SOLVING FOR HEAD 
                                                   Max.-Head-Change                         Max.-Flux-Residual
  Residual-Control   Outer-Iter.   Inner-Iter.     Column Row Layer    Maximum-Head-Change  Column Row Layer    Maximum-Flux-Residual          L2-NORM 
          0                 1           2             5    8     1       0.1179171399E+00       5    8    1         0.6382117931E+01      0.1614295562E+02
          0                 2           2             4    7     1      -0.1615477943E+00       5    8    1        -0.8758182765E+01      0.2137709369E+02
          0                 3           2             4    7     1       0.1100038506E-01       5    8    1         0.6130512806E+00      0.1496341157E+01
          0                 4           2             4    7     1      -0.4377162170E-03       5    8    1        -0.2507385812E-01      0.6120051403E-01
          0                 5           1             4    7     1       0.5397229990E-05       5    8    1         0.3177630249E-03      0.7756124190E-03

    ------------------------------------------------
       NWT REQUIRED            5 OUTER ITERATIONS 
       AND A TOTAL OF          9 INNER ITERATIONS.
    ------------------------------------------------

 NO OUTPUT CONTROL FOR STRESS PERIOD   21   TIME STEP   25
 
 SOLVING FOR HEAD 
                                                   Max.-Head-Change                         Max.-Flux-Residual
  Residual-Control   Outer-Iter.   Inner-Iter.     Column Row Layer    Maximum-Head-Change  Column Row Layer    Maximum-Flux-Residual          L2-NORM 
          0                 1           2             5    8     1       0.1176948735E+00       5    8    1         0.6369263683E+01      0.1612705255E+02
          0                 2           2             4    7     1      -0.1615858092E+00       5    8    1        -0.8756897442E+01      0.2137690217E+02
          0                 3           2             4    7     1       0.1100297312E-01       5    8    1         0.6129613073E+00      0.1496327715E+01
          0                 4           2             4    7     1      -0.4378192012E-03       5    8    1        -0.2507017821E-01      0.6119996425E-01
          0                 5           1             4    7     1       0.5398499790E-05       5    8    1         0.3177163892E-03      0.7755922057E-03

    ------------------------------------------------
       NWT REQUIRED            5 OUTER ITERATIONS 
       AND A TOTAL OF          9 INNER ITERATIONS.
    ------------------------------------------------

 NO OUTPUT CONTROL FOR STRESS PERIOD   21   TIME STEP   26
 
 SOLVING FOR HEAD 
                                                   Max.-Head-Change                         Max.-Flux-Residual
  Residual-Control   Outer-Iter.   Inner-Iter.     Column Row Layer    Maximum-Head-Change  Column Row Layer    Maximum-Flux-Residual          L2-NORM 
          0                 1           2             5    8     1       0.1174957410E+00       5    8    1         0.6357702845E+01      0.1611299531E+02
          0                 2           2             4    7     1      -0.1616222860E+00       5    8    1        -0.8755741457E+01      0.2137682491E+02
          0                 3           2             4    7     1       0.1100545648E-01       5    8    1         0.6128803872E+00      0.1496322273E+01
          0                 4           2             4    7     1      -0.4379180189E-03       5    8    1        -0.2506686858E-01      0.6119974193E-01
          0                 5           1             4    7     1       0.5399718063E-05       5    8    1         0.3176744526E-03      0.7755897175E-03

    ------------------------------------------------
       NWT REQUIRED            5 OUTER ITERATIONS 
       AND A TOTAL OF          9 INNER ITERATIONS.
    ------------------------------------------------

 NO OUTPUT CONTROL FOR STRESS PERIOD   21   TIME STEP   27
 
 SOLVING FOR HEAD 
                                                   Max.-Head-Change                         Max.-Flux-Residual
  Residual-Control   Outer-Iter.   Inner-Iter.     Column Row Layer    Maximum-Head-Change  Column Row Layer    Maximum-Flux-Residual          L2-NORM 
          0                 1           2             5    8     1       0.1173179183E+00       5    8    1         0.6347333731E+01      0.1610063999E+02
          0                 2           2             4    7     1      -0.1616573338E+00       5    8    1        -0.8754704642E+01      0.2137685281E+02
          0                 3           2             4    7     1       0.1100784256E-01       5    8    1         0.6128078086E+00      0.1496324192E+01
          0                 4           2             4    7     1      -0.4380129662E-03       5    8    1        -0.2506390012E-01      0.6119982044E-01
          0                 5           1             4    7     1       0.5400889067E-05       5    8    1         0.3176368436E-03      0.7755909139E-03

    ------------------------------------------------
       NWT REQUIRED            5 OUTER ITERATIONS 
       AND A TOTAL OF          9 INNER ITERATIONS.
    ------------------------------------------------

 NO OUTPUT CONTROL FOR STRESS PERIOD   21   TIME STEP   28
 
 SOLVING FOR HEAD 
                                                   Max.-Head-Change                         Max.-Flux-Residual
  Residual-Control   Outer-Iter.   Inner-Iter.     Column Row Layer    Maximum-Head-Change  Column Row Layer    Maximum-Flux-Residual          L2-NORM 
          0                 1           2             5    8     1       0.1171602826E+00       5    8    1         0.6338092838E+01      0.1608989854E+02
          0                 2           2             4    7     1      -0.1616910306E+00       5    8    1        -0.8753780646E+01      0.2137698141E+02
          0                 3           2             4    7     1       0.1101013666E-01       5    8    1         0.6127431270E+00      0.1496333163E+01
          0                 4           2             4    7     1      -0.4381042531E-03       5    8    1        -0.2506125464E-01      0.6120018774E-01
          0                 5           1             4    7     1       0.5402014480E-05       5    8    1         0.3176033003E-03      0.7755955858E-03

    ------------------------------------------------
       NWT REQUIRED            5 OUTER ITERATIONS 
       AND A TOTAL OF          9 INNER ITERATIONS.
    ------------------------------------------------

 NO OUTPUT CONTROL FOR STRESS PERIOD   21   TIME STEP   29
 
 SOLVING FOR HEAD 
                                                   Max.-Head-Change                         Max.-Flux-Residual
  Residual-Control   Outer-Iter.   Inner-Iter.     Column Row Layer    Maximum-Head-Change  Column Row Layer    Maximum-Flux-Residual          L2-NORM 
          0                 1           2             5    8     1       0.1170210937E+00       5    8    1         0.6329883117E+01      0.1608064992E+02
          0                 2           2             4    7     1      -0.1617234739E+00       5    8    1        -0.8752959765E+01      0.2137720257E+02
          0                 3           2             4    7     1       0.1101234544E-01       5    8    1         0.6126856631E+00      0.1496348613E+01
          0                 4           2             4    7     1      -0.4381921448E-03       5    8    1        -0.2505890437E-01      0.6120081988E-01
          0                 5           1             4    7     1       0.5403097887E-05       5    8    1         0.3175735121E-03      0.7757874916E-03

    ------------------------------------------------
       NWT REQUIRED            5 OUTER ITERATIONS 
       AND A TOTAL OF          9 INNER ITERATIONS.
    ------------------------------------------------

 NO OUTPUT CONTROL FOR STRESS PERIOD   21   TIME STEP   30



 STREAM LISTING     PERIOD     21   STEP       30

 LAYER ROW COL. STREAM  RCH.  FLOW INTO     FLOW TO   FLOW OUT OF   OVRLND.     DIRECT     STREAM       STREAM     STREAM     STREAM   STREAMBED  STREAMBED
                SEG.NO.  NO.  STRM. RCH.    AQUIFER    STRM. RCH.    RUNOFF     PRECIP       ET          HEAD       DEPTH      WIDTH   CONDCTNC.   GRADIENT

   1    1    1     1     1    3.7001E+01  2.9351E-01   3.6707E+01  0.000E+00  0.000E+00  0.000E+00  1.09436E+03  1.308E+00  1.514E+01  6.812E-02  1.436E+00
   1    2    2     1     2    3.6707E+01  4.5449E-01   3.6253E+01  0.000E+00  0.000E+00  0.000E+00  1.08936E+03  1.305E+00  1.508E+01  1.056E-01  1.435E+00
   1    3    3     1     3    3.6253E+01  3.8754E-01   3.5865E+01  0.000E+00  0.000E+00  0.000E+00  1.08372E+03  1.302E+00  1.501E+01  9.008E-02  1.434E+00
   1    3    4     1     4    3.5865E+01  3.5682E-01   3.5508E+01  0.000E+00  0.000E+00  0.000E+00  1.07871E+03  1.299E+00  1.495E+01  8.300E-02  1.433E+00
   1    4    5     2     1    3.3508E+01  3.4594E-01   3.3162E+01  0.000E+00  0.000E+00  0.000E+00  1.07337E+03  1.435E+00  1.200E+01  7.800E-02  1.478E+00
   1    5    6     2     2    3.3162E+01  2.6563E-01   3.2897E+01  0.000E+00  0.000E+00  0.000E+00  1.06794E+03  1.427E+00  1.200E+01  6.000E-02  1.476E+00
   1    6    6     2     3    3.2897E+01  2.6522E-01   3.2631E+01  0.000E+00  0.000E+00  0.000E+00  1.06321E+03  1.420E+00  1.200E+01  6.000E-02  1.473E+00
   1    7    6     2     4    3.2631E+01  2.6480E-01   3.2367E+01  0.000E+00  0.000E+00  0.000E+00  1.05849E+03  1.413E+00  1.200E+01  6.000E-02  1.471E+00
   1    8    6     2     5    3.2367E+01  2.6439E-01   3.2102E+01  0.000E+00  0.000E+00  0.000E+00  1.05377E+03  1.406E+00  1.200E+01  6.000E-02  1.469E+00
   1    3    5     3     1    2.0000E+00  2.8252E-01   1.7175E+00  0.000E+00  0.000E+00  0.000E+00  1.07555E+03  1.909E+00  9.636E+00  7.227E-02  1.955E+00
   1    3    6     3     2    1.7175E+00  2.4905E-01   1.4684E+00  0.000E+00  0.000E+00  0.000E+00  1.07264E+03  1.727E+00  8.909E+00  6.682E-02  1.864E+00
   1    3    7     3     3    1.4684E+00  1.9718E-01   1.2712E+00  0.000E+00  0.000E+00  0.000E+00  1.06987E+03  1.555E+00  8.218E+00  5.547E-02  1.777E+00
   1    4    8     3     4    1.2712E+00  2.2567E-01   1.0456E+00  0.000E+00  0.000E+00  0.000E+00  1.06682E+03  1.364E+00  7.455E+00  6.709E-02  1.682E+00
   1    5    8     3     5    1.0456E+00  1.5790E-01   8.8768E-01  0.000E+00  0.000E+00  0.000E+00  1.06362E+03  1.164E+00  6.655E+00  4.991E-02  1.582E+00
   1    6    8     3     6    8.8768E-01  5.5980E-02   8.3170E-01  0.000E+00  0.000E+00  0.000E+00  1.06158E+03  1.036E+00  6.145E+00  1.844E-02  1.518E+00
   1    5   10     4     1    1.0000E+01  9.0919E-02   9.9091E+00  0.000E+00  0.000E+00  0.000E+00  1.07836E+03  6.368E-01  1.000E+01  2.500E-02  1.212E+00
   1    5    9     4     2    9.9091E+00  1.8158E-01   9.7275E+00  0.000E+00  0.000E+00  0.000E+00  1.07154E+03  6.315E-01  1.000E+01  5.000E-02  1.211E+00
   1    6    8     4     3    9.7275E+00  1.2689E-01   9.6006E+00  0.000E+00  0.000E+00  0.000E+00  1.06381E+03  6.256E-01  1.000E+01  3.500E-02  1.209E+00
   1    6    8     5     1    1.0432E+01  2.2686E-01   1.0205E+01  0.000E+00  0.000E+00  0.000E+00  1.05868E+03  6.790E-01  1.542E+01  6.166E-02  1.226E+00
   1    7    7     5     2    1.0205E+01  2.7894E-01   9.9265E+00  0.000E+00  0.000E+00  0.000E+00  1.05417E+03  6.732E-01  1.519E+01  7.594E-02  1.224E+00
   1    8    7     5     3    9.9265E+00  1.9221E-01   9.7343E+00  0.000E+00  0.000E+00  0.000E+00  1.04992E+03  6.676E-01  1.497E+01  5.241E-02  1.223E+00
   1    8    6     5     4    9.7343E+00  1.3577E-01   9.5985E+00  0.000E+00  0.000E+00  0.000E+00  1.04691E+03  6.637E-01  1.482E+01  3.706E-02  1.221E+00
   1    9    6     6     1    4.1701E+01  2.7939E-01   4.1421E+01  0.000E+00  0.000E+00  0.000E+00  1.04438E+03  1.656E+00  1.200E+01  6.000E-02  1.552E+00
   1   10    7     6     2    4.1421E+01  2.7899E-01   4.1142E+01  0.000E+00  0.000E+00  0.000E+00  1.03983E+03  1.650E+00  1.200E+01  6.000E-02  1.550E+00
   1   11    7     6     3    4.1142E+01  2.7859E-01   4.0864E+01  0.000E+00  0.000E+00  0.000E+00  1.03528E+03  1.643E+00  1.200E+01  6.000E-02  1.548E+00
   1   12    7     6     4    4.0864E+01  2.7818E-01   4.0586E+01  0.000E+00  0.000E+00  0.000E+00  1.03073E+03  1.636E+00  1.200E+01  6.000E-02  1.545E+00
   1   13    7     6     5    4.0586E+01  1.1536E-02   4.0574E+01  0.000E+00  0.000E+00  0.000E+00  1.02754E+03  1.633E+00  1.200E+01  2.400E-02  1.602E-01
   1   14    9     7     1    1.5000E+02  1.3338E+00   1.4867E+02  0.000E+00  0.000E+00  0.000E+00  1.03987E+03  2.288E+00  5.529E+01  5.593E-01  7.949E-01
   1   13    8     7     2    1.4867E+02  1.8356E+00   1.4683E+02  0.000E+00  0.000E+00  0.000E+00  1.03478E+03  2.279E+00  5.526E+01  6.148E-01  9.953E-01
   1   13    7     7     3    1.4683E+02  1.4679E+00   1.4536E+02  0.000E+00  0.000E+00  0.000E+00  1.02969E+03  2.270E+00  5.522E+01  5.585E-01  8.762E-01
   1   13    6     8     1    1.8594E+02  9.8250E-01   1.8495E+02  0.000E+00  0.000E+00  0.000E+00  1.02493E+03  3.050E+00  4.423E+01  4.507E-01  7.267E-01
   1   13    5     8     2    1.8495E+02  2.1123E-01   1.8474E+02  0.000E+00  0.000E+00  0.000E+00  1.01867E+03  3.046E+00  4.417E+01  4.501E-01  1.564E-01
   1   13    4     8     3    1.8474E+02 -2.3505E+00   1.8709E+02  0.000E+00  0.000E+00  0.000E+00  1.01243E+03  3.053E+00  4.427E+01  4.511E+00 -1.737E-01
   1   13    3     8     4    1.8709E+02 -3.6181E+00   1.9071E+02  0.000E+00  0.000E+00  0.000E+00  1.00620E+03  3.071E+00  4.453E+01  4.538E+00 -2.658E-01
   1   13    2     8     5    1.9071E+02 -2.5883E+00   1.9330E+02  0.000E+00  0.000E+00  0.000E+00  9.99965E+02  3.090E+00  4.481E+01  4.566E+00 -1.890E-01
   1   13    1     8     6    1.9330E+02 -2.0212E+00   1.9532E+02  0.000E+00  0.000E+00  0.000E+00  9.94979E+02  3.104E+00  4.501E+01  2.752E+00 -2.448E-01





UNSATURATED ZONE PACKAGE VOLUMETRIC BUDGET FOR  TIME STEP    30 STRESS PERIOD   21
  ------------------------------------------------------------------------------



     CUMULATIVE VOLUMES      L**3       RATES FOR THIS TIME STEP      L**3/T
     ------------------                 ------------------------

           IN:                                      IN:
           ---                                      ---
        INFILTRATION =   966833531.8623          INFILTRATION =          49.5675

          OUT:                                     OUT:
          ----                                     ----
              UZF ET =   822713804.7707                UZF ET =          49.5675
        UZF RECHARGE =    72024631.8946          UZF RECHARGE =       0.0000E+00

            IN - OUT =    72095095.1970              IN - OUT =       0.0000E+00

          STORAGE:                                 STORAGE:
          --------                                 --------
      STORAGE CHANGE =    72095083.2523        STORAGE CHANGE =       8.7913E-13

 PERCENT DISCREPANCY IS DIFFERENCE BETWEEN IN-OUT MINUS CHANGE IN STORAGE
 DIVIDED BY THE AVERAGE OF IN AND OUT TIMES 100

 PERCENT DISCREPANCY =           0.00     PERCENT DISCREPANCY =           0.00






1
  VOLUMETRIC BUDGET FOR AGRICULTURAL FIELDS AT  END OF TIME STEP   30, STRESS PERIOD  21
  ------------------------------------------------------------------------------

     CUMULATIVE VOLUMES      L**3       RATES FOR THIS TIME STEP      L**3/T
     ------------------                 ------------------------

           IN:                                      IN:
           ---                                      ---
           AG WELLS      =   922180544.0000             AG WELLS      =          48.7200
      DIVERSION SEGMENTS =           0.0000        DIVERSION SEGMENTS =           0.0000
           GW IRRIGATION =           0.0000             GW IRRIGATION =           0.0000
           SW IRRIGATION =           0.0000             SW IRRIGATION =           0.0000
        SYSTEM LOSSES GW =           0.0000          SYSTEM LOSSES GW =           0.0000
        SYSTEM LOSSES SW =           0.0000          SYSTEM LOSSES SW =           0.0000

                TOTAL IN =   922180544.0000                  TOTAL IN =          48.7200

          OUT:                                     OUT:
          ----                                     ----
           AG WELLS      =           0.0000             AG WELLS      =           0.0000
      DIVERSION SEGMENTS =           0.0000        DIVERSION SEGMENTS =           0.0000
           GW IRRIGATION =   922180544.0000             GW IRRIGATION =          48.7200
           SW IRRIGATION =           0.0000             SW IRRIGATION =           0.0000
        SYSTEM LOSSES GW =           0.0000          SYSTEM LOSSES GW =           0.0000
        SYSTEM LOSSES SW =           0.0000          SYSTEM LOSSES SW =           0.0000

               TOTAL OUT =   922180544.0000                 TOTAL OUT =          48.7200

                IN - OUT =           0.0000                  IN - OUT =           0.0000

     PERCENT DISCREPANCY =           0.00         PERCENT DISCREPANCY =           0.00



1
  VOLUMETRIC BUDGET FOR ENTIRE MODEL AT END OF TIME STEP   30, STRESS PERIOD  21
  ------------------------------------------------------------------------------

     CUMULATIVE VOLUMES      L**3       RATES FOR THIS TIME STEP      L**3/T
     ------------------                 ------------------------

           IN:                                      IN:
           ---                                      ---
             STORAGE     =  1062860928.0000               STORAGE     =          47.2811
       CONSTANT HEAD     =           0.0000         CONSTANT HEAD     =           0.0000
     HEAD DEP BOUNDS     =    15038314.0000       HEAD DEP BOUNDS     =           0.2856
      STREAM LEAKAGE     =   662102144.0000        STREAM LEAKAGE     =          12.2575
        UZF RECHARGE     =    72024584.0000          UZF RECHARGE     =           0.0000
               GW ET     =           0.0000                 GW ET     =           0.0000
     SURFACE LEAKAGE     =           0.0000       SURFACE LEAKAGE     =           0.0000
           AG WELLS      =           0.0000             AG WELLS      =           0.0000

                TOTAL IN =  1812025984.0000                  TOTAL IN =          59.8242

          OUT:                                     OUT:
          ----                                     ----
             STORAGE     =   313295424.0000               STORAGE     =           0.2331
       CONSTANT HEAD     =           0.0000         CONSTANT HEAD     =           0.0000
     HEAD DEP BOUNDS     =    15529189.0000       HEAD DEP BOUNDS     =           0.2931
      STREAM LEAKAGE     =   543499200.0000        STREAM LEAKAGE     =          10.5780
        UZF RECHARGE     =           0.0000          UZF RECHARGE     =           0.0000
               GW ET     =    17517140.0000                 GW ET     =           0.0000
     SURFACE LEAKAGE     =           0.0000       SURFACE LEAKAGE     =           0.0000
           AG WELLS      =   922180544.0000             AG WELLS      =          48.7200

               TOTAL OUT =  1812021504.0000                 TOTAL OUT =          59.8242

                IN - OUT =        4480.0000                  IN - OUT =       3.0518E-05

     PERCENT DISCREPANCY =           0.00         PERCENT DISCREPANCY =           0.00






         TIME SUMMARY AT END OF TIME STEP   30 IN STRESS PERIOD   21
                    SECONDS     MINUTES      HOURS       DAYS        YEARS
                    -----------------------------------------------------------
   TIME STEP LENGTH  87667.      1461.1      24.352      1.0147     2.77799E-03
 STRESS PERIOD TIME 2.63000E+06  43833.      730.56      30.440     8.33397E-02
         TOTAL TIME 5.26866E+07 8.78110E+05  14635.      609.80      1.6695    
1
1
                            STRESS PERIOD NO.   22, LENGTH =   2630000.    
                            -----------------------------------------------

                              NUMBER OF TIME STEPS =    30

                               MULTIPLIER FOR DELT =     1.000

                            INITIAL TIME STEP SIZE =   87666.66    

 REUSING NON-PARAMETER GHB CELLS FROM LAST STRESS PERIOD

      2 GHB CELLS

 REUSING STREAM SEGMENT DATA FROM LAST STRESS PERIOD



            AREAL INFILTRATION RATE
 READING ON UNIT   19 WITH FORMAT: (FREE)              

            1           2           3           4           5           6           7           8           9          10
 ........................................................................................................................
   1   1.0000E-10  2.0000E-10   0.000       0.000       0.000       0.000       0.000       0.000       0.000       0.000    
   2   2.0000E-10  1.0000E-10  2.0000E-10   0.000       0.000      8.0000E-10  8.0000E-10  5.0000E-10   0.000       0.000    
   3    0.000      5.0000E-10  1.0000E-10  1.0000E-10  8.0000E-10  8.0000E-10  5.0000E-10  5.0000E-10   0.000       0.000    
   4   8.0000E-10  5.0000E-10  1.0000E-10  1.0000E-10  1.0000E-10  1.0000E-10  1.0000E-10  1.0000E-10  2.0000E-10   0.000    
   5   8.0000E-10  5.0000E-10  1.0000E-10  1.0000E-10  1.0000E-10  1.0000E-10  1.0000E-10  1.0000E-10  1.0000E-10  1.0000E-10
   6   8.0000E-10  5.0000E-10  5.0000E-10  2.0000E-10  2.0000E-10  1.0000E-10  1.0000E-10  1.0000E-10  1.0000E-10  5.0000E-10
   7   8.0000E-10  5.0000E-10  5.0000E-10  2.0000E-10  2.0000E-10  1.0000E-10  1.0000E-10  2.0000E-10  2.0000E-10   0.000    
   8    0.000      5.0000E-10  5.0000E-10  2.0000E-10  2.0000E-10  1.0000E-10  1.0000E-10  2.0000E-10  5.0000E-10   0.000    
   9    0.000      5.0000E-10  5.0000E-10  2.0000E-10  2.0000E-10  1.0000E-10  1.0000E-10  2.0000E-10  5.0000E-10   0.000    
  10    0.000      5.0000E-10  5.0000E-10  2.0000E-10  2.0000E-10  1.0000E-10  1.0000E-10  2.0000E-10  5.0000E-10  8.0000E-10
  11    0.000      1.0000E-10  1.0000E-10  1.0000E-10  1.0000E-10  1.0000E-10  1.0000E-10  2.0000E-10  5.0000E-10   0.000    
  12   1.0000E-10  1.0000E-10  1.0000E-10  1.0000E-10  1.0000E-10  1.0000E-10  1.0000E-10  1.0000E-10  2.0000E-10   0.000    
  13   1.0000E-10  1.0000E-10  2.0000E-10  2.0000E-10  2.0000E-10  2.0000E-10  2.0000E-10  1.0000E-10  1.0000E-10   0.000    
  14    0.000      2.0000E-10  5.0000E-10  5.0000E-10  5.0000E-10  5.0000E-10  5.0000E-10  2.0000E-10  1.0000E-10   0.000    
  15    0.000       0.000      8.0000E-10  8.0000E-10  8.0000E-10  8.0000E-10   0.000       0.000       0.000       0.000    

                  ET RATE =  7.500000E-08

 USING ET EXTINCTION DEPTH FROM PREVIOUS STRESS PERIOD. CURRENT PERIOD IS:      22

 USING EXTINCTION WATER CONTENT FROM PREVIOUS STRESS PERIOD. CURRENT PERIOD IS:      22

 USING AIR ENTRY PRESSURE FROM PREVIOUS STRESS PERIOD. CURRENT PERIOD IS:      22

 USING ROOT PRESSURE HEAD FROM PREVIOUS STRESS PERIOD. CURRENT PERIOD IS:      22

 USING ROOT ACTIVITY FROM PREVIOUS STRESS PERIOD. CURRENT PERIOD IS:      22

 PROCESSING AG STRESS PERIOD DATA

 READING AG STRESS PERIOD DATA

 READING IRRIGATION WELL

 END PROCESSING AG STRESS PERIOD DATA OPTIONS
 
 SOLVING FOR HEAD 
                                                   Max.-Head-Change                         Max.-Flux-Residual
  Residual-Control   Outer-Iter.   Inner-Iter.     Column Row Layer    Maximum-Head-Change  Column Row Layer    Maximum-Flux-Residual          L2-NORM 
          0                 1           2             5    8     1       0.8188619168E-01       5    8    1         0.4447629806E+01      0.1200844090E+02
          0                 2           2             5    8     1      -0.7965142725E-02       5    8    1        -0.4447525050E+00      0.1200770933E+01
          0                 3           2             5    8     1       0.5423960803E-03       5    8    1         0.3113266982E-01      0.8404994030E-01
          0                 4           1             5    8     1      -0.2158449023E-04       5    8    1        -0.1273446716E-02      0.3437661289E-02

    ------------------------------------------------
       NWT REQUIRED            4 OUTER ITERATIONS 
       AND A TOTAL OF          7 INNER ITERATIONS.
    ------------------------------------------------

 NO OUTPUT CONTROL FOR STRESS PERIOD   22   TIME STEP    1
 
 SOLVING FOR HEAD 
                                                   Max.-Head-Change                         Max.-Flux-Residual
  Residual-Control   Outer-Iter.   Inner-Iter.     Column Row Layer    Maximum-Head-Change  Column Row Layer    Maximum-Flux-Residual          L2-NORM 
          0                 1           2             5    8     1       0.1134147075E+00       5    8    1         0.6130227149E+01      0.1574685912E+02
          0                 2           2             5    7     1      -0.4525763574E-01       5    8    1        -0.2476414034E+01      0.6045877834E+01
          0                 3           2             5    7     1       0.3081616854E-02       5    8    1         0.1733347783E+00      0.4231755959E+00
          0                 4           2             5    7     1      -0.1226225255E-03       5    8    1        -0.7089521953E-02      0.1730815119E-01
          0                 5           1             5    7     1       0.1509966036E-05       5    8    1         0.8972688897E-04      0.2190529104E-03

    ------------------------------------------------
       NWT REQUIRED            5 OUTER ITERATIONS 
       AND A TOTAL OF          9 INNER ITERATIONS.
    ------------------------------------------------

 NO OUTPUT CONTROL FOR STRESS PERIOD   22   TIME STEP    2
 
 SOLVING FOR HEAD 
                                                   Max.-Head-Change                         Max.-Flux-Residual
  Residual-Control   Outer-Iter.   Inner-Iter.     Column Row Layer    Maximum-Head-Change  Column Row Layer    Maximum-Flux-Residual          L2-NORM 
          0                 1           2             5    7     1       0.1102849188E+00       5    8    1         0.5949049791E+01      0.1541524518E+02
          0                 2           2             4    7     1      -0.4522079242E-01       5    8    1        -0.2464879755E+01      0.6032895256E+01
          0                 3           2             4    7     1       0.3079096967E-02       5    8    1         0.1725270177E+00      0.4222659951E+00
          0                 4           2             4    7     1      -0.1225201849E-03       5    8    1        -0.7056365303E-02      0.1727066013E-01
          0                 5           1             4    7     1       0.1510727065E-05       5    8    1         0.8942588829E-04      0.2188717723E-03

    ------------------------------------------------
       NWT REQUIRED            5 OUTER ITERATIONS 
       AND A TOTAL OF          9 INNER ITERATIONS.
    ------------------------------------------------

 NO OUTPUT CONTROL FOR STRESS PERIOD   22   TIME STEP    3
 
 SOLVING FOR HEAD 
                                                   Max.-Head-Change                         Max.-Flux-Residual
  Residual-Control   Outer-Iter.   Inner-Iter.     Column Row Layer    Maximum-Head-Change  Column Row Layer    Maximum-Flux-Residual          L2-NORM 
          0                 1           2             5    8     1       0.1895658964E+00       5    8    1         0.1033203397E+02      0.1736014161E+02
          0                 2           2             5    8     1      -0.5239319472E-01       5    8    1        -0.2902699361E+01      0.6204445791E+01
          0                 3           2             5    8     1       0.3564935134E-02       5    8    1         0.2030231889E+00      0.4342046167E+00
          0                 4           2             5    8     1      -0.1416847093E-03       5    8    1        -0.8293623230E-02      0.1775449811E-01
          0                 5           1             5    8     1       0.1740476102E-05       5    8    1         0.1047017670E-03      0.2248180556E-03

    ------------------------------------------------
       NWT REQUIRED            5 OUTER ITERATIONS 
       AND A TOTAL OF          9 INNER ITERATIONS.
    ------------------------------------------------

 NO OUTPUT CONTROL FOR STRESS PERIOD   22   TIME STEP    4
 
 SOLVING FOR HEAD 
                                                   Max.-Head-Change                         Max.-Flux-Residual
  Residual-Control   Outer-Iter.   Inner-Iter.     Column Row Layer    Maximum-Head-Change  Column Row Layer    Maximum-Flux-Residual          L2-NORM 
          0                 1           2             5    8     1       0.1821142799E+00       5    8    1         0.9917104179E+01      0.1693991245E+02
          0                 2           2             4    7     1      -0.4512791224E-01       5    7    1        -0.2443669197E+01      0.5482540631E+01
          0                 3           2             4    7     1       0.3071566717E-02       5    7    1         0.1710414526E+00      0.4077499951E+00
          0                 4           2             5    8     1      -0.6766720874E-03       5    8    1        -0.3818385315E-01      0.4128589647E-01
          0                 5           1             5    8     1      -0.1911125364E-03       5    8    1        -0.1084259620E-01      0.1084406312E-01
          0                 6           1             5    8     1      -0.5397464045E-04       5    8    1        -0.3061533932E-02      0.3061571061E-02

    ------------------------------------------------
       NWT REQUIRED            6 OUTER ITERATIONS 
       AND A TOTAL OF         10 INNER ITERATIONS.
    ------------------------------------------------

 NO OUTPUT CONTROL FOR STRESS PERIOD   22   TIME STEP    5
 
 SOLVING FOR HEAD 
                                                   Max.-Head-Change                         Max.-Flux-Residual
  Residual-Control   Outer-Iter.   Inner-Iter.     Column Row Layer    Maximum-Head-Change  Column Row Layer    Maximum-Flux-Residual          L2-NORM 
          0                 1           2             5    8     1       0.1726534751E+00       5    8    1         0.9389981442E+01      0.1648336741E+02
          0                 2           2             4    7     1      -0.4509125816E-01       5    7    1        -0.2444023691E+01      0.5472976283E+01
          0                 3           2             4    7     1       0.3070273442E-02       5    7    1         0.1710661759E+00      0.3830710687E+00
          0                 4           2             4    7     1      -0.1221711907E-03       5    7    1        -0.6996740240E-02      0.1566771575E-01
          0                 5           1             4    7     1       0.1506423231E-05       5    7    1         0.8867024326E-04      0.1985546699E-03

    ------------------------------------------------
       NWT REQUIRED            5 OUTER ITERATIONS 
       AND A TOTAL OF          9 INNER ITERATIONS.
    ------------------------------------------------

 NO OUTPUT CONTROL FOR STRESS PERIOD   22   TIME STEP    6
 
 SOLVING FOR HEAD 
                                                   Max.-Head-Change                         Max.-Flux-Residual
  Residual-Control   Outer-Iter.   Inner-Iter.     Column Row Layer    Maximum-Head-Change  Column Row Layer    Maximum-Flux-Residual          L2-NORM 
          0                 1           2             5    8     1       0.1636830962E+00       5    8    1         0.8890470436E+01      0.1605660292E+02
          0                 2           2             5    8     1      -0.4987603909E-01       5    8    1        -0.2758598587E+01      0.6100028741E+01
          0                 3           2             5    8     1       0.3393655908E-02       5    8    1         0.1929437551E+00      0.4269010841E+00
          0                 4           2             5    8     1      -0.1348774722E-03       5    8    1        -0.7881860125E-02      0.1745617625E-01
          0                 5           1             5    8     1       0.1656855347E-05       5    8    1         0.9950287085E-04      0.2210504647E-03

    ------------------------------------------------
       NWT REQUIRED            5 OUTER ITERATIONS 
       AND A TOTAL OF          9 INNER ITERATIONS.
    ------------------------------------------------

 NO OUTPUT CONTROL FOR STRESS PERIOD   22   TIME STEP    7
 
 SOLVING FOR HEAD 
                                                   Max.-Head-Change                         Max.-Flux-Residual
  Residual-Control   Outer-Iter.   Inner-Iter.     Column Row Layer    Maximum-Head-Change  Column Row Layer    Maximum-Flux-Residual          L2-NORM 
          0                 1           2             5    8     1       0.1577558717E+00       5    8    1         0.8561444897E+01      0.1571373390E+02
          0                 2           2             5    8     1      -0.4929964358E-01       5    8    1        -0.2725709653E+01      0.6071043840E+01
          0                 3           2             5    8     1       0.3354434965E-02       5    8    1         0.1906432574E+00      0.4248733316E+00
          0                 4           2             5    8     1      -0.1333186954E-03       5    8    1        -0.7787881086E-02      0.1737331862E-01
          0                 5           1             5    8     1       0.1637707083E-05       5    8    1         0.9831630723E-04      0.2200038460E-03

    ------------------------------------------------
       NWT REQUIRED            5 OUTER ITERATIONS 
       AND A TOTAL OF          9 INNER ITERATIONS.
    ------------------------------------------------

 NO OUTPUT CONTROL FOR STRESS PERIOD   22   TIME STEP    8
 
 SOLVING FOR HEAD 
                                                   Max.-Head-Change                         Max.-Flux-Residual
  Residual-Control   Outer-Iter.   Inner-Iter.     Column Row Layer    Maximum-Head-Change  Column Row Layer    Maximum-Flux-Residual          L2-NORM 
          0                 1           2             5    8     1       0.1522036294E+00       5    8    1         0.8253449601E+01      0.1539007161E+02
          0                 2           2             5    8     1      -0.4875971662E-01       5    8    1        -0.2694923042E+01      0.6043393328E+01
          0                 3           2             5    8     1       0.3317695497E-02       5    8    1         0.1884898108E+00      0.4229389249E+00
          0                 4           2             5    8     1      -0.1318585413E-03       5    8    1        -0.7699909389E-02      0.1729428885E-01
          0                 5           1             5    8     1       0.1619770595E-05       5    8    1         0.9720560820E-04      0.2190400841E-03

    ------------------------------------------------
       NWT REQUIRED            5 OUTER ITERATIONS 
       AND A TOTAL OF          9 INNER ITERATIONS.
    ------------------------------------------------

 NO OUTPUT CONTROL FOR STRESS PERIOD   22   TIME STEP    9
 
 SOLVING FOR HEAD 
                                                   Max.-Head-Change                         Max.-Flux-Residual
  Residual-Control   Outer-Iter.   Inner-Iter.     Column Row Layer    Maximum-Head-Change  Column Row Layer    Maximum-Flux-Residual          L2-NORM 
          0                 1           2             5    8     1       0.1469989140E+00       5    8    1         0.7964934598E+01      0.1508400723E+02
          0                 2           2             4    7     1      -0.4493323988E-01       5    7    1        -0.2429911513E+01      0.5785128899E+01
          0                 3           2             5    8     1      -0.7473349145E-02       5    8    1        -0.4290006120E+00      0.5714776948E+00
          0                 4           2             5    8     1       0.5086076625E-03       5    8    1         0.2987772437E-01      0.3370760521E-01
          0                 5           1             5    8     1      -0.2021860242E-04       5    8    1        -0.1215490779E-02      0.1233540223E-02

    ------------------------------------------------
       NWT REQUIRED            5 OUTER ITERATIONS 
       AND A TOTAL OF          9 INNER ITERATIONS.
    ------------------------------------------------

 NO OUTPUT CONTROL FOR STRESS PERIOD   22   TIME STEP   10
 
 SOLVING FOR HEAD 
                                                   Max.-Head-Change                         Max.-Flux-Residual
  Residual-Control   Outer-Iter.   Inner-Iter.     Column Row Layer    Maximum-Head-Change  Column Row Layer    Maximum-Flux-Residual          L2-NORM 
          0                 1           2             5    8     1       0.1421166640E+00       5    8    1         0.7694485118E+01      0.1479409507E+02
          0                 2           2             4    7     1      -0.4487041507E-01       5    7    1        -0.2424852841E+01      0.5380673152E+01
          0                 3           2             4    7     1       0.3054742185E-02       5    7    1         0.1697244915E+00      0.3813232940E+00
          0                 4           2             5    8     1      -0.2755722817E-03       5    8    1        -0.1542770558E-01      0.2181309564E-01
          0                 5           1             5    8     1      -0.7782317637E-04       5    8    1        -0.4417079722E-02      0.4420948946E-02

    ------------------------------------------------
       NWT REQUIRED            5 OUTER ITERATIONS 
       AND A TOTAL OF          9 INNER ITERATIONS.
    ------------------------------------------------

 NO OUTPUT CONTROL FOR STRESS PERIOD   22   TIME STEP   11
 
 SOLVING FOR HEAD 
                                                   Max.-Head-Change                         Max.-Flux-Residual
  Residual-Control   Outer-Iter.   Inner-Iter.     Column Row Layer    Maximum-Head-Change  Column Row Layer    Maximum-Flux-Residual          L2-NORM 
          0                 1           2             4    8     1       0.1766237462E+00       4    8    1         0.9424909218E+01      0.1637786728E+02
          0                 2           2             4    7     1      -0.4477952917E-01       5    7    1        -0.2423002803E+01      0.5296385082E+01
          0                 3           2             4    7     1       0.3049015834E-02       5    7    1         0.1695945794E+00      0.3706619864E+00
          0                 4           2             4    7     1      -0.1213237382E-03       5    7    1        -0.6936552487E-02      0.1515695555E-01
          0                 5           1             4    7     1       0.1495910974E-05       5    7    1         0.8790750189E-04      0.1919501518E-03

    ------------------------------------------------
       NWT REQUIRED            5 OUTER ITERATIONS 
       AND A TOTAL OF          9 INNER ITERATIONS.
    ------------------------------------------------

 NO OUTPUT CONTROL FOR STRESS PERIOD   22   TIME STEP   12
 
 SOLVING FOR HEAD 
                                                   Max.-Head-Change                         Max.-Flux-Residual
  Residual-Control   Outer-Iter.   Inner-Iter.     Column Row Layer    Maximum-Head-Change  Column Row Layer    Maximum-Flux-Residual          L2-NORM 
          0                 1           2             5    7     1       0.1867190670E+00       5    7    1         0.1005576031E+02      0.1843547070E+02
          0                 2           2             5    7     1      -0.5264427456E-01       5    7    1        -0.2875095100E+01      0.6326749233E+01
          0                 3           2             5    7     1       0.3581968769E-02       5    7    1         0.2010892223E+00      0.4426422699E+00
          0                 4           2             5    7     1      -0.1423595419E-03       5    7    1        -0.8214479732E-02      0.1809118451E-01
          0                 5           1             5    7     1       0.1748681189E-05       5    7    1         0.1036968501E-03      0.2287551311E-03

    ------------------------------------------------
       NWT REQUIRED            5 OUTER ITERATIONS 
       AND A TOTAL OF          9 INNER ITERATIONS.
    ------------------------------------------------

 NO OUTPUT CONTROL FOR STRESS PERIOD   22   TIME STEP   13
 
 SOLVING FOR HEAD 
                                                   Max.-Head-Change                         Max.-Flux-Residual
  Residual-Control   Outer-Iter.   Inner-Iter.     Column Row Layer    Maximum-Head-Change  Column Row Layer    Maximum-Flux-Residual          L2-NORM 
          0                 1           2             5    7     1       0.1814610133E+00       5    7    1         0.9743707383E+01      0.1846061234E+02
          0                 2           2             4    8     1      -0.5191714434E-01       5    7    1        -0.2843899146E+01      0.5852404501E+01
          0                 3           2             4    8     1       0.3532443213E-02       5    7    1         0.1989093056E+00      0.4194475786E+00
          0                 4           2             5    6     1      -0.4330065505E-03       5    6    1        -0.2432851758E-01      0.2953885320E-01
          0                 5           2             5    6     1      -0.1223284464E-03       5    6    1        -0.6939874604E-02      0.6942635282E-02
          0                 6           1             5    6     1      -0.3455809003E-04       5    6    1        -0.1959731137E-02      0.1959782017E-02

    ------------------------------------------------
       NWT REQUIRED            6 OUTER ITERATIONS 
       AND A TOTAL OF         11 INNER ITERATIONS.
    ------------------------------------------------

 NO OUTPUT CONTROL FOR STRESS PERIOD   22   TIME STEP   14
 
 SOLVING FOR HEAD 
                                                   Max.-Head-Change                         Max.-Flux-Residual
  Residual-Control   Outer-Iter.   Inner-Iter.     Column Row Layer    Maximum-Head-Change  Column Row Layer    Maximum-Flux-Residual          L2-NORM 
          0                 1           2             5    7     1       0.1777175917E+00       5    7    1         0.9488315813E+01      0.1937837035E+02
          0                 2           2             5    7     1      -0.5144350242E-01       5    7    1        -0.2818356236E+01      0.5643293971E+01
          0                 3           2             4    8     1      -0.9637973451E-02       4    8    1        -0.5423501095E+00      0.6589633445E+00
          0                 4           2             4    8     1      -0.2779996157E-02       4    8    1        -0.1548652202E+00      0.1556386021E+00
          0                 5           2             4    8     1      -0.8018488860E-03       4    8    1        -0.4472494875E-01      0.4472524614E-01
          0                 6           2             4    8     1      -0.2312760843E-03       4    8    1        -0.1289914249E-01      0.1289924495E-01
          0                 7           1             4    8     1      -0.6670507696E-04       4    8    1        -0.3720367155E-02      0.3720395118E-02

    ------------------------------------------------
       NWT REQUIRED            7 OUTER ITERATIONS 
       AND A TOTAL OF         13 INNER ITERATIONS.
    ------------------------------------------------

 NO OUTPUT CONTROL FOR STRESS PERIOD   22   TIME STEP   15
 
 SOLVING FOR HEAD 
                                                   Max.-Head-Change                         Max.-Flux-Residual
  Residual-Control   Outer-Iter.   Inner-Iter.     Column Row Layer    Maximum-Head-Change  Column Row Layer    Maximum-Flux-Residual          L2-NORM 
          0                 1           2             5    7     1       0.1738796068E+00       5    7    1         0.9280274673E+01      0.1898068434E+02
          0                 2           2             5    6     1      -0.4905071040E-01       5    6    1        -0.2736011304E+01      0.5134961415E+01
          0                 3           2             5    7     1      -0.3678024603E-02       5    7    1        -0.2170885512E+00      0.4416632743E+00
          0                 4           2             5    7     1      -0.1037831365E-02       5    7    1        -0.5857899872E-01      0.7341277850E-01
          0                 5           2             5    7     1      -0.2928457499E-03       5    7    1        -0.1662787575E-01      0.2002855065E-01
          0                 6           1             5    7     1      -0.8263205616E-04       5    7    1        -0.4690523022E-02      0.5565604011E-02

    ------------------------------------------------
       NWT REQUIRED            6 OUTER ITERATIONS 
       AND A TOTAL OF         11 INNER ITERATIONS.
    ------------------------------------------------

 NO OUTPUT CONTROL FOR STRESS PERIOD   22   TIME STEP   16
 
 SOLVING FOR HEAD 
                                                   Max.-Head-Change                         Max.-Flux-Residual
  Residual-Control   Outer-Iter.   Inner-Iter.     Column Row Layer    Maximum-Head-Change  Column Row Layer    Maximum-Flux-Residual          L2-NORM 
          0                 1           2             5    7     1       0.1680596488E+00       5    7    1         0.8958850185E+01      0.1855778276E+02
          0                 2           2             5    6     1      -0.4848135039E-01       5    6    1        -0.2712802936E+01      0.5421323941E+01
          0                 3           2             5    6     1       0.3298688462E-02       5    6    1         0.1897379260E+00      0.3792846843E+00
          0                 4           2             5    6     1      -0.1311032449E-03       5    6    1        -0.7751031371E-02      0.1550141571E-01
          0                 5           1             5    6     1       0.1610484005E-05       5    6    1         0.9785560542E-04      0.1963098485E-03

    ------------------------------------------------
       NWT REQUIRED            5 OUTER ITERATIONS 
       AND A TOTAL OF          9 INNER ITERATIONS.
    ------------------------------------------------

 NO OUTPUT CONTROL FOR STRESS PERIOD   22   TIME STEP   17
 
 SOLVING FOR HEAD 
                                                   Max.-Head-Change                         Max.-Flux-Residual
  Residual-Control   Outer-Iter.   Inner-Iter.     Column Row Layer    Maximum-Head-Change  Column Row Layer    Maximum-Flux-Residual          L2-NORM 
          0                 1           2             4    7     1       0.1969808872E+00       4    7    1         0.1041497314E+02      0.2011660708E+02
          0                 2           2             5    7     1      -0.4973898415E-01       5    7    1        -0.2729565774E+01      0.5821666028E+01
          0                 3           2             4    7     1      -0.8598207098E-02       4    7    1        -0.4885669358E+00      0.6854668082E+00
          0                 4           2             5    8     1      -0.1508409530E-02       5    8    1        -0.8535032494E-01      0.9315948960E-01
          0                 5           1             5    8     1      -0.4259697515E-03       5    8    1        -0.2416768896E-01      0.2420747734E-01
          0                 6           1             5    8     1      -0.1202894917E-03       5    8    1        -0.6823827166E-02      0.6823920074E-02
          0                 7           1             5    8     1      -0.3396771160E-04       5    8    1        -0.1926924914E-02      0.1926942389E-02

    ------------------------------------------------
       NWT REQUIRED            7 OUTER ITERATIONS 
       AND A TOTAL OF         11 INNER ITERATIONS.
    ------------------------------------------------

 NO OUTPUT CONTROL FOR STRESS PERIOD   22   TIME STEP   18
 
 SOLVING FOR HEAD 
                                                   Max.-Head-Change                         Max.-Flux-Residual
  Residual-Control   Outer-Iter.   Inner-Iter.     Column Row Layer    Maximum-Head-Change  Column Row Layer    Maximum-Flux-Residual          L2-NORM 
          0                 1           2             4    7     1       0.1940807196E+00       4    7    1         0.1025891893E+02      0.1979938175E+02
          0                 2           2             4    8     1      -0.4856785838E-01       5    7    1        -0.2719999596E+01      0.4780273047E+01
          0                 3           2             5    6     1      -0.7448013478E-02       5    6    1        -0.4279549657E+00      0.5498161978E+00
          0                 4           2             5    6     1      -0.2103712580E-02       5    6    1        -0.1191071648E+00      0.1258518482E+00
          0                 5           2             5    6     1      -0.5941911480E-03       5    6    1        -0.3370561694E-01      0.3523476554E-01
          0                 6           2             5    6     1      -0.1678262516E-03       5    6    1        -0.9519003725E-02      0.9909818518E-02
          0                 7           1             5    6     1      -0.4740099513E-04       5    6    1        -0.2688514975E-02      0.2788424359E-02

    ------------------------------------------------
       NWT REQUIRED            7 OUTER ITERATIONS 
       AND A TOTAL OF         13 INNER ITERATIONS.
    ------------------------------------------------

 NO OUTPUT CONTROL FOR STRESS PERIOD   22   TIME STEP   19
 
 SOLVING FOR HEAD 
                                                   Max.-Head-Change                         Max.-Flux-Residual
  Residual-Control   Outer-Iter.   Inner-Iter.     Column Row Layer    Maximum-Head-Change  Column Row Layer    Maximum-Flux-Residual          L2-NORM 
          0                 1           2             4    7     1       0.1879179421E+00       4    7    1         0.9922494220E+01      0.1944040663E+02
          0                 2           2             4    8     1      -0.4943522391E-01       5    7    1        -0.2718561198E+01      0.5165486572E+01
          0                 3           2             4    8     1       0.3363558377E-02       5    7    1         0.1902063878E+00      0.3627544454E+00
          0                 4           2             5    6     1       0.1947963145E-03       5    6    1         0.1097314427E-01      0.1835552541E-01
          0                 5           1             5    6     1       0.5111093854E-04       5    6    1         0.2816369805E-02      0.2823570294E-02

    ------------------------------------------------
       NWT REQUIRED            5 OUTER ITERATIONS 
       AND A TOTAL OF          9 INNER ITERATIONS.
    ------------------------------------------------

 NO OUTPUT CONTROL FOR STRESS PERIOD   22   TIME STEP   20
 
 SOLVING FOR HEAD 
                                                   Max.-Head-Change                         Max.-Flux-Residual
  Residual-Control   Outer-Iter.   Inner-Iter.     Column Row Layer    Maximum-Head-Change  Column Row Layer    Maximum-Flux-Residual          L2-NORM 
          0                 1           2             4    7     1       0.1856942129E+00       4    7    1         0.9738270218E+01      0.2077787388E+02
          0                 2           2             4    7     1      -0.5229708394E-01       4    7    1        -0.2843309152E+01      0.5435332804E+01
          0                 3           2             5    7     1      -0.9555100230E-02       5    7    1        -0.5496294711E+00      0.7062755204E+00
          0                 4           2             4    8     1      -0.1399485415E-02       4    8    1        -0.7786765279E-01      0.8798358019E-01
          0                 5           2             4    8     1      -0.4036373369E-03       4    8    1        -0.2251639030E-01      0.2257044530E-01
          0                 6           2             4    8     1      -0.1164136930E-03       4    8    1        -0.6493210325E-02      0.6493292810E-02
          0                 7           1             4    8     1      -0.3357428564E-04       4    8    1        -0.1872664630E-02      0.1872677527E-02

    ------------------------------------------------
       NWT REQUIRED            7 OUTER ITERATIONS 
       AND A TOTAL OF         13 INNER ITERATIONS.
    ------------------------------------------------

 NO OUTPUT CONTROL FOR STRESS PERIOD   22   TIME STEP   21
 
 SOLVING FOR HEAD 
                                                   Max.-Head-Change                         Max.-Flux-Residual
  Residual-Control   Outer-Iter.   Inner-Iter.     Column Row Layer    Maximum-Head-Change  Column Row Layer    Maximum-Flux-Residual          L2-NORM 
          0                 1           2             4    7     1       0.1843923581E+00       4    7    1         0.9673269956E+01      0.2046977546E+02
          0                 2           2             4    6     1      -0.5162278984E-01       4    7    1        -0.2836814072E+01      0.5399671288E+01
          0                 3           2             4    7     1       0.3523646119E-02       4    7    1         0.1985746422E+00      0.3854402998E+00
          0                 4           2             4    6     1      -0.1395358878E-03       4    6    1        -0.8044214376E-02      0.1676836135E-01
          0                 5           1             5    7     1       0.2797359036E-04       5    7    1         0.1539636715E-02      0.1567948951E-02

    ------------------------------------------------
       NWT REQUIRED            5 OUTER ITERATIONS 
       AND A TOTAL OF          9 INNER ITERATIONS.
    ------------------------------------------------

 NO OUTPUT CONTROL FOR STRESS PERIOD   22   TIME STEP   22
 
 SOLVING FOR HEAD 
                                                   Max.-Head-Change                         Max.-Flux-Residual
  Residual-Control   Outer-Iter.   Inner-Iter.     Column Row Layer    Maximum-Head-Change  Column Row Layer    Maximum-Flux-Residual          L2-NORM 
          0                 1           2             4    7     1       0.1841592415E+00       4    7    1         0.9670339514E+01      0.2014390645E+02
          0                 2           2             4    8     1      -0.4864431834E-01       4    8    1        -0.2658216560E+01      0.5234312123E+01
          0                 3           2             4    6     1      -0.1084011601E-01       4    6    1        -0.6042970579E+00      0.8169311111E+00
          0                 4           2             4    7     1      -0.2319027167E-02       4    7    1        -0.1299392723E+00      0.1328458171E+00
          0                 5           1             4    7     1      -0.6663433866E-03       4    7    1        -0.3726661387E-01      0.3728136989E-01
          0                 6           1             4    7     1      -0.1914610437E-03       4    7    1        -0.1071116303E-01      0.1071125884E-01
          0                 7           1             4    7     1      -0.5501139500E-04       4    7    1        -0.3077504182E-02      0.3077537986E-02

    ------------------------------------------------
       NWT REQUIRED            7 OUTER ITERATIONS 
       AND A TOTAL OF         11 INNER ITERATIONS.
    ------------------------------------------------

 NO OUTPUT CONTROL FOR STRESS PERIOD   22   TIME STEP   23
 
 SOLVING FOR HEAD 
                                                   Max.-Head-Change                         Max.-Flux-Residual
  Residual-Control   Outer-Iter.   Inner-Iter.     Column Row Layer    Maximum-Head-Change  Column Row Layer    Maximum-Flux-Residual          L2-NORM 
          0                 1           2             4    7     1       0.1822604350E+00       4    7    1         0.9573062372E+01      0.1985761350E+02
          0                 2           2             4    8     1      -0.4798101514E-01       5    7    1        -0.2654628463E+01      0.5275528910E+01
          0                 3           2             4    7     1       0.3713483547E-02       4    7    1         0.1952506130E+00      0.4276494977E+00
          0                 4           2             4    6     1       0.5850909038E-03       4    6    1         0.3181542712E-01      0.3798388695E-01
          0                 5           2             4    6     1       0.1560098528E-03       4    6    1         0.8525838047E-02      0.8651768997E-02
          0                 6           1             4    6     1       0.4159874910E-04       4    6    1         0.2266730590E-02      0.2269232319E-02

    ------------------------------------------------
       NWT REQUIRED            6 OUTER ITERATIONS 
       AND A TOTAL OF         11 INNER ITERATIONS.
    ------------------------------------------------

 NO OUTPUT CONTROL FOR STRESS PERIOD   22   TIME STEP   24
 
 SOLVING FOR HEAD 
                                                   Max.-Head-Change                         Max.-Flux-Residual
  Residual-Control   Outer-Iter.   Inner-Iter.     Column Row Layer    Maximum-Head-Change  Column Row Layer    Maximum-Flux-Residual          L2-NORM 
          0                 1           2             4    7     1       0.1779883689E+00       4    7    1         0.9345207142E+01      0.1954005891E+02
          0                 2           2             4    7     1      -0.5187332182E-01       4    7    1        -0.2804027952E+01      0.6116200105E+01
          0                 3           2             4    7     1       0.3529415556E-02       4    7    1         0.1961169607E+00      0.4277772759E+00
          0                 4           2             4    7     1      -0.1402648219E-03       4    7    1        -0.8011262712E-02      0.1747467146E-01
          0                 5           1             4    7     1       0.1722712229E-05       4    7    1         0.1011274346E-03      0.2205950157E-03

    ------------------------------------------------
       NWT REQUIRED            5 OUTER ITERATIONS 
       AND A TOTAL OF          9 INNER ITERATIONS.
    ------------------------------------------------

 NO OUTPUT CONTROL FOR STRESS PERIOD   22   TIME STEP   25
 
 SOLVING FOR HEAD 
                                                   Max.-Head-Change                         Max.-Flux-Residual
  Residual-Control   Outer-Iter.   Inner-Iter.     Column Row Layer    Maximum-Head-Change  Column Row Layer    Maximum-Flux-Residual          L2-NORM 
          0                 1           2             4    7     1       0.1765319052E+00       4    7    1         0.9271286324E+01      0.1927564870E+02
          0                 2           2             4    7     1      -0.5199875499E-01       4    7    1        -0.2796640744E+01      0.5997843795E+01
          0                 3           2             5    6     1      -0.8364119411E-02       5    6    1        -0.4803345079E+00      0.6777003599E+00
          0                 4           2             5    6     1      -0.2362746842E-02       5    6    1        -0.1337723451E+00      0.1362189130E+00
          0                 5           2             5    6     1      -0.6674270189E-03       5    6    1        -0.3785710647E-01      0.3786629726E-01
          0                 6           2             5    6     1      -0.1885297222E-03       5    6    1        -0.1069258522E-01      0.1069269619E-01
          0                 7           1             5    6     1      -0.5325317821E-04       5    6    1        -0.3020273246E-02      0.3020300951E-02

    ------------------------------------------------
       NWT REQUIRED            7 OUTER ITERATIONS 
       AND A TOTAL OF         13 INNER ITERATIONS.
    ------------------------------------------------

 NO OUTPUT CONTROL FOR STRESS PERIOD   22   TIME STEP   26
 
 SOLVING FOR HEAD 
                                                   Max.-Head-Change                         Max.-Flux-Residual
  Residual-Control   Outer-Iter.   Inner-Iter.     Column Row Layer    Maximum-Head-Change  Column Row Layer    Maximum-Flux-Residual          L2-NORM 
          0                 1           2             4    7     1       0.1747893903E+00       4    7    1         0.9180822477E+01      0.1902903639E+02
          0                 2           2             4    7     1      -0.5156103379E-01       4    7    1        -0.2787599356E+01      0.4977421802E+01
          0                 3           2             4    8     1      -0.8614237112E-02       4    8    1        -0.4800321951E+00      0.5974824586E+00
          0                 4           2             4    8     1      -0.2503898186E-02       4    8    1        -0.1386980051E+00      0.1513207265E+00
          0                 5           2             4    8     1      -0.7278724149E-03       4    8    1        -0.4034515466E-01      0.4397723263E-01
          0                 6           2             4    8     1      -0.2116075068E-03       4    8    1        -0.1172761586E-01      0.1281034406E-01
          0                 7           1             4    8     1      -0.6152370925E-04       4    8    1        -0.3409429354E-02      0.3731858508E-02

    ------------------------------------------------
       NWT REQUIRED            7 OUTER ITERATIONS 
       AND A TOTAL OF         13 INNER ITERATIONS.
    ------------------------------------------------

 NO OUTPUT CONTROL FOR STRESS PERIOD   22   TIME STEP   27
 
 SOLVING FOR HEAD 
                                                   Max.-Head-Change                         Max.-Flux-Residual
  Residual-Control   Outer-Iter.   Inner-Iter.     Column Row Layer    Maximum-Head-Change  Column Row Layer    Maximum-Flux-Residual          L2-NORM 
          0                 1           2             4    7     1       0.1731435837E+00       4    7    1         0.9094062605E+01      0.1876222704E+02
          0                 2           2             4    6     1      -0.4887680761E-01       4    6    1        -0.2707975535E+01      0.3286139689E+01
          0                 3           2             4    7     1      -0.8463372140E-02       4    7    1        -0.4740925643E+00      0.5491855279E+00
          0                 4           2             4    7     1      -0.2446311573E-02       4    7    1        -0.1360876299E+00      0.1479727221E+00
          0                 5           2             4    7     1      -0.7075346297E-03       4    7    1        -0.3937246904E-01      0.4288352960E-01
          0                 6           1             4    7     1      -0.2047552419E-03       4    7    1        -0.1138840560E-01      0.1245106763E-01
          0                 7           1             4    7     1      -0.5928691813E-04       4    7    1        -0.3296071511E-02      0.3618733665E-02

    ------------------------------------------------
       NWT REQUIRED            7 OUTER ITERATIONS 
       AND A TOTAL OF         12 INNER ITERATIONS.
    ------------------------------------------------

 NO OUTPUT CONTROL FOR STRESS PERIOD   22   TIME STEP   28
 
 SOLVING FOR HEAD 
                                                   Max.-Head-Change                         Max.-Flux-Residual
  Residual-Control   Outer-Iter.   Inner-Iter.     Column Row Layer    Maximum-Head-Change  Column Row Layer    Maximum-Flux-Residual          L2-NORM 
          0                 1           2             4    7     1       0.1722352051E+00       4    7    1         0.9050240178E+01      0.1847602690E+02
          0                 2           2             5    6     1      -0.4449711540E-01       5    6    1        -0.2509029887E+01      0.3359140185E+01
          0                 3           2             4    6     1      -0.5689919581E-02       4    6    1        -0.3241169456E+00      0.4255489542E+00
          0                 4           2             4    6     1      -0.1615682295E-02       4    6    1        -0.9108199269E-01      0.1015544950E+00
          0                 5           2             4    6     1      -0.4591696792E-03       4    6    1        -0.2590127613E-01      0.2826864279E-01
          0                 6           2             4    6     1      -0.1305984432E-03       4    6    1        -0.7361981491E-02      0.7914291491E-02
          0                 7           1             4    6     1      -0.3717332703E-04       4    6    1        -0.2094299015E-02      0.2221748824E-02

    ------------------------------------------------
       NWT REQUIRED            7 OUTER ITERATIONS 
       AND A TOTAL OF         13 INNER ITERATIONS.
    ------------------------------------------------

 NO OUTPUT CONTROL FOR STRESS PERIOD   22   TIME STEP   29
 
 SOLVING FOR HEAD 
                                                   Max.-Head-Change                         Max.-Flux-Residual
  Residual-Control   Outer-Iter.   Inner-Iter.     Column Row Layer    Maximum-Head-Change  Column Row Layer    Maximum-Flux-Residual          L2-NORM 
          0                 1           2             4    7     1       0.1686032774E+00       4    7    1         0.8859889888E+01      0.1733651379E+02
          0                 2           2             5    7     1      -0.4762454149E-01       5    7    1        -0.2597041943E+01      0.5406131314E+01
          0                 3           2             5    7     1       0.3241258607E-02       5    7    1         0.1816403080E+00      0.3853330201E+00
          0                 4           2             4    6     1       0.4081085169E-03       4    6    1         0.2246304633E-01      0.2720626604E-01
          0                 5           1             4    6     1       0.1088118385E-03       4    6    1         0.5930394664E-02      0.5934581062E-02
          0                 6           1             4    6     1       0.2901198413E-04       4    6    1         0.1581780220E-02      0.1581877475E-02

    ------------------------------------------------
       NWT REQUIRED            6 OUTER ITERATIONS 
       AND A TOTAL OF         10 INNER ITERATIONS.
    ------------------------------------------------

 NO OUTPUT CONTROL FOR STRESS PERIOD   22   TIME STEP   30



 STREAM LISTING     PERIOD     22   STEP       30

 LAYER ROW COL. STREAM  RCH.  FLOW INTO     FLOW TO   FLOW OUT OF   OVRLND.     DIRECT     STREAM       STREAM     STREAM     STREAM   STREAMBED  STREAMBED
                SEG.NO.  NO.  STRM. RCH.    AQUIFER    STRM. RCH.    RUNOFF     PRECIP       ET          HEAD       DEPTH      WIDTH   CONDCTNC.   GRADIENT

   1    1    1     1     1    2.4431E+01  2.4251E-01   2.4189E+01  0.000E+00  0.000E+00  0.000E+00  1.09422E+03  1.170E+00  1.292E+01  5.816E-02  1.390E+00
   1    2    2     1     2    2.4189E+01  3.7499E-01   2.3814E+01  0.000E+00  0.000E+00  0.000E+00  1.08922E+03  1.165E+00  1.286E+01  9.003E-02  1.388E+00
   1    3    3     1     3    2.3814E+01  3.1923E-01   2.3495E+01  0.000E+00  0.000E+00  0.000E+00  1.08358E+03  1.160E+00  1.279E+01  7.674E-02  1.387E+00
   1    3    4     1     4    2.3495E+01  2.9350E-01   2.3201E+01  0.000E+00  0.000E+00  0.000E+00  1.07856E+03  1.155E+00  1.273E+01  7.064E-02  1.385E+00
   1    4    5     2     1    2.1201E+01  3.1894E-01   2.0882E+01  0.000E+00  0.000E+00  0.000E+00  1.07302E+03  1.089E+00  1.200E+01  7.800E-02  1.363E+00
   1    5    6     2     2    2.0882E+01  2.4481E-01   2.0637E+01  0.000E+00  0.000E+00  0.000E+00  1.06759E+03  1.080E+00  1.200E+01  6.000E-02  1.360E+00
   1    6    6     2     3    2.0637E+01  2.4435E-01   2.0393E+01  0.000E+00  0.000E+00  0.000E+00  1.06286E+03  1.072E+00  1.200E+01  6.000E-02  1.357E+00
   1    7    6     2     4    2.0393E+01  2.4389E-01   2.0149E+01  0.000E+00  0.000E+00  0.000E+00  1.05814E+03  1.065E+00  1.200E+01  6.000E-02  1.355E+00
   1    8    6     2     5    2.0149E+01  2.4343E-01   1.9906E+01  0.000E+00  0.000E+00  0.000E+00  1.05342E+03  1.057E+00  1.200E+01  6.000E-02  1.352E+00
   1    3    5     3     1    2.0000E+00  2.8252E-01   1.7175E+00  0.000E+00  0.000E+00  0.000E+00  1.07555E+03  1.909E+00  9.636E+00  7.227E-02  1.955E+00
   1    3    6     3     2    1.7175E+00  2.4905E-01   1.4684E+00  0.000E+00  0.000E+00  0.000E+00  1.07264E+03  1.727E+00  8.909E+00  6.682E-02  1.864E+00
   1    3    7     3     3    1.4684E+00  1.9718E-01   1.2712E+00  0.000E+00  0.000E+00  0.000E+00  1.06987E+03  1.555E+00  8.218E+00  5.547E-02  1.777E+00
   1    4    8     3     4    1.2712E+00  2.2567E-01   1.0456E+00  0.000E+00  0.000E+00  0.000E+00  1.06682E+03  1.364E+00  7.455E+00  6.709E-02  1.682E+00
   1    5    8     3     5    1.0456E+00  1.5790E-01   8.8768E-01  0.000E+00  0.000E+00  0.000E+00  1.06362E+03  1.164E+00  6.655E+00  4.991E-02  1.582E+00
   1    6    8     3     6    8.8768E-01  5.5980E-02   8.3170E-01  0.000E+00  0.000E+00  0.000E+00  1.06158E+03  1.036E+00  6.145E+00  1.844E-02  1.518E+00
   1    5   10     4     1    1.0000E+01  9.0919E-02   9.9091E+00  0.000E+00  0.000E+00  0.000E+00  1.07836E+03  6.368E-01  1.000E+01  2.500E-02  1.212E+00
   1    5    9     4     2    9.9091E+00  1.8158E-01   9.7275E+00  0.000E+00  0.000E+00  0.000E+00  1.07154E+03  6.315E-01  1.000E+01  5.000E-02  1.211E+00
   1    6    8     4     3    9.7275E+00  1.2689E-01   9.6006E+00  0.000E+00  0.000E+00  0.000E+00  1.06381E+03  6.256E-01  1.000E+01  3.500E-02  1.209E+00
   1    6    8     5     1    1.0432E+01  2.2686E-01   1.0205E+01  0.000E+00  0.000E+00  0.000E+00  1.05868E+03  6.790E-01  1.542E+01  6.166E-02  1.226E+00
   1    7    7     5     2    1.0205E+01  2.7894E-01   9.9265E+00  0.000E+00  0.000E+00  0.000E+00  1.05417E+03  6.732E-01  1.519E+01  7.594E-02  1.224E+00
   1    8    7     5     3    9.9265E+00  1.9221E-01   9.7343E+00  0.000E+00  0.000E+00  0.000E+00  1.04992E+03  6.676E-01  1.497E+01  5.241E-02  1.223E+00
   1    8    6     5     4    9.7343E+00  1.3577E-01   9.5985E+00  0.000E+00  0.000E+00  0.000E+00  1.04691E+03  6.637E-01  1.482E+01  3.706E-02  1.221E+00
   1    9    6     6     1    2.9504E+01  2.6070E-01   2.9244E+01  0.000E+00  0.000E+00  0.000E+00  1.04407E+03  1.345E+00  1.200E+01  6.000E-02  1.448E+00
   1   10    7     6     2    2.9244E+01  2.6027E-01   2.8983E+01  0.000E+00  0.000E+00  0.000E+00  1.03952E+03  1.338E+00  1.200E+01  6.000E-02  1.446E+00
   1   11    7     6     3    2.8983E+01  2.5984E-01   2.8723E+01  0.000E+00  0.000E+00  0.000E+00  1.03497E+03  1.331E+00  1.200E+01  6.000E-02  1.444E+00
   1   12    7     6     4    2.8723E+01  2.5941E-01   2.8464E+01  0.000E+00  0.000E+00  0.000E+00  1.03041E+03  1.324E+00  1.200E+01  6.000E-02  1.441E+00
   1   13    7     6     5    2.8464E+01  4.5603E-03   2.8459E+01  0.000E+00  0.000E+00  0.000E+00  1.02723E+03  1.320E+00  1.200E+01  2.400E-02  6.334E-02
   1   14    9     7     1    1.5000E+02  1.3347E+00   1.4867E+02  0.000E+00  0.000E+00  0.000E+00  1.03987E+03  2.288E+00  5.529E+01  5.593E-01  7.955E-01
   1   13    8     7     2    1.4867E+02  1.8402E+00   1.4683E+02  0.000E+00  0.000E+00  0.000E+00  1.03478E+03  2.279E+00  5.526E+01  6.148E-01  9.978E-01
   1   13    7     7     3    1.4683E+02  1.4804E+00   1.4534E+02  0.000E+00  0.000E+00  0.000E+00  1.02969E+03  2.270E+00  5.522E+01  5.584E-01  8.836E-01
   1   13    6     8     1    1.7380E+02  9.4593E-01   1.7286E+02  0.000E+00  0.000E+00  0.000E+00  1.02485E+03  2.974E+00  4.312E+01  4.394E-01  7.176E-01
   1   13    5     8     2    1.7286E+02  1.9577E-01   1.7266E+02  0.000E+00  0.000E+00  0.000E+00  1.01860E+03  2.970E+00  4.307E+01  4.389E-01  1.487E-01
   1   13    4     8     3    1.7266E+02 -2.3770E+00   1.7504E+02  0.000E+00  0.000E+00  0.000E+00  1.01235E+03  2.977E+00  4.317E+01  4.399E+00 -1.801E-01
   1   13    3     8     4    1.7504E+02 -3.6471E+00   1.7869E+02  0.000E+00  0.000E+00  0.000E+00  1.00612E+03  2.996E+00  4.345E+01  4.427E+00 -2.746E-01
   1   13    2     8     5    1.7869E+02 -2.6105E+00   1.8130E+02  0.000E+00  0.000E+00  0.000E+00  9.99891E+02  3.016E+00  4.373E+01  4.457E+00 -1.952E-01
   1   13    1     8     6    1.8130E+02 -2.0290E+00   1.8333E+02  0.000E+00  0.000E+00  0.000E+00  9.94906E+02  3.031E+00  4.394E+01  2.687E+00 -2.517E-01





UNSATURATED ZONE PACKAGE VOLUMETRIC BUDGET FOR  TIME STEP    30 STRESS PERIOD   22
  ------------------------------------------------------------------------------



     CUMULATIVE VOLUMES      L**3       RATES FOR THIS TIME STEP      L**3/T
     ------------------                 ------------------------

           IN:                                      IN:
           ---                                      ---
        INFILTRATION =   998570226.9575          INFILTRATION =          12.0675

          OUT:                                     OUT:
          ----                                     ----
              UZF ET =   854451332.2721                UZF ET =          12.0675
        UZF RECHARGE =   120007576.5196          UZF RECHARGE =          26.4906

            IN - OUT =    24111318.1658              IN - OUT =         -26.4906

          STORAGE:                                 STORAGE:
          --------                                 --------
      STORAGE CHANGE =    24111306.0833        STORAGE CHANGE =         -26.4906

 PERCENT DISCREPANCY IS DIFFERENCE BETWEEN IN-OUT MINUS CHANGE IN STORAGE
 DIVIDED BY THE AVERAGE OF IN AND OUT TIMES 100

 PERCENT DISCREPANCY =           0.00     PERCENT DISCREPANCY =           0.00






1
  VOLUMETRIC BUDGET FOR AGRICULTURAL FIELDS AT  END OF TIME STEP   30, STRESS PERIOD  22
  ------------------------------------------------------------------------------

     CUMULATIVE VOLUMES      L**3       RATES FOR THIS TIME STEP      L**3/T
     ------------------                 ------------------------

           IN:                                      IN:
           ---                                      ---
           AG WELLS      =   951688192.0000             AG WELLS      =          11.2200
      DIVERSION SEGMENTS =           0.0000        DIVERSION SEGMENTS =           0.0000
           GW IRRIGATION =           0.0000             GW IRRIGATION =           0.0000
           SW IRRIGATION =           0.0000             SW IRRIGATION =           0.0000
        SYSTEM LOSSES GW =           0.0000          SYSTEM LOSSES GW =           0.0000
        SYSTEM LOSSES SW =           0.0000          SYSTEM LOSSES SW =           0.0000

                TOTAL IN =   951688192.0000                  TOTAL IN =          11.2200

          OUT:                                     OUT:
          ----                                     ----
           AG WELLS      =           0.0000             AG WELLS      =           0.0000
      DIVERSION SEGMENTS =           0.0000        DIVERSION SEGMENTS =           0.0000
           GW IRRIGATION =   951688192.0000             GW IRRIGATION =          11.2200
           SW IRRIGATION =           0.0000             SW IRRIGATION =           0.0000
        SYSTEM LOSSES GW =           0.0000          SYSTEM LOSSES GW =           0.0000
        SYSTEM LOSSES SW =           0.0000          SYSTEM LOSSES SW =           0.0000

               TOTAL OUT =   951688192.0000                 TOTAL OUT =          11.2200

                IN - OUT =           0.0000                  IN - OUT =           0.0000

     PERCENT DISCREPANCY =           0.00         PERCENT DISCREPANCY =           0.00



1
  VOLUMETRIC BUDGET FOR ENTIRE MODEL AT END OF TIME STEP   30, STRESS PERIOD  22
  ------------------------------------------------------------------------------

     CUMULATIVE VOLUMES      L**3       RATES FOR THIS TIME STEP      L**3/T
     ------------------                 ------------------------

           IN:                                      IN:
           ---                                      ---
             STORAGE     =  1129788928.0000               STORAGE     =          18.5936
       CONSTANT HEAD     =           0.0000         CONSTANT HEAD     =           0.0000
     HEAD DEP BOUNDS     =    15789578.0000       HEAD DEP BOUNDS     =           0.2857
      STREAM LEAKAGE     =   693052992.0000        STREAM LEAKAGE     =          11.7688
        UZF RECHARGE     =   120007528.0000          UZF RECHARGE     =          26.4906
               GW ET     =           0.0000                 GW ET     =           0.0000
     SURFACE LEAKAGE     =           0.0000       SURFACE LEAKAGE     =           0.0000
           AG WELLS      =           0.0000             AG WELLS      =           0.0000

                TOTAL IN =  1958638976.0000                  TOTAL IN =          57.1387

          OUT:                                     OUT:
          ----                                     ----
             STORAGE     =   400989248.0000               STORAGE     =          34.9636
       CONSTANT HEAD     =           0.0000         CONSTANT HEAD     =           0.0000
     HEAD DEP BOUNDS     =    16296801.0000       HEAD DEP BOUNDS     =           0.2911
      STREAM LEAKAGE     =   572143424.0000        STREAM LEAKAGE     =          10.6636
        UZF RECHARGE     =           0.0000          UZF RECHARGE     =           0.0000
               GW ET     =    17517140.0000                 GW ET     =           0.0000
     SURFACE LEAKAGE     =           0.0000       SURFACE LEAKAGE     =           0.0000
           AG WELLS      =   951688192.0000             AG WELLS      =          11.2200

               TOTAL OUT =  1958634752.0000                 TOTAL OUT =          57.1383

                IN - OUT =        4224.0000                  IN - OUT =       4.3106E-04

     PERCENT DISCREPANCY =           0.00         PERCENT DISCREPANCY =           0.00






         TIME SUMMARY AT END OF TIME STEP   30 IN STRESS PERIOD   22
                    SECONDS     MINUTES      HOURS       DAYS        YEARS
                    -----------------------------------------------------------
   TIME STEP LENGTH  87667.      1461.1      24.352      1.0147     2.77799E-03
 STRESS PERIOD TIME 2.63000E+06  43833.      730.56      30.440     8.33397E-02
         TOTAL TIME 5.53166E+07 9.21944E+05  15366.      640.24      1.7529    
1
1
                            STRESS PERIOD NO.   23, LENGTH =   2630000.    
                            -----------------------------------------------

                              NUMBER OF TIME STEPS =    30

                               MULTIPLIER FOR DELT =     1.000

                            INITIAL TIME STEP SIZE =   87666.66    

 REUSING NON-PARAMETER GHB CELLS FROM LAST STRESS PERIOD

      2 GHB CELLS

 REUSING STREAM SEGMENT DATA FROM LAST STRESS PERIOD



            AREAL INFILTRATION RATE
 READING ON UNIT   19 WITH FORMAT: (FREE)              

            1           2           3           4           5           6           7           8           9          10
 ........................................................................................................................
   1   1.0000E-10  2.0000E-10   0.000       0.000       0.000       0.000       0.000       0.000       0.000       0.000    
   2   2.0000E-10  1.0000E-10  2.0000E-10   0.000       0.000      8.0000E-10  8.0000E-10  5.0000E-10   0.000       0.000    
   3    0.000      5.0000E-10  1.0000E-10  1.0000E-10  8.0000E-10  8.0000E-10  5.0000E-10  5.0000E-10   0.000       0.000    
   4   8.0000E-10  5.0000E-10  1.0000E-10  1.0000E-10  1.0000E-10  1.0000E-10  1.0000E-10  1.0000E-10  2.0000E-10   0.000    
   5   8.0000E-10  5.0000E-10  1.0000E-10  1.0000E-10  1.0000E-10  1.0000E-10  1.0000E-10  1.0000E-10  1.0000E-10  1.0000E-10
   6   8.0000E-10  5.0000E-10  5.0000E-10  2.0000E-10  2.0000E-10  1.0000E-10  1.0000E-10  1.0000E-10  1.0000E-10  5.0000E-10
   7   8.0000E-10  5.0000E-10  5.0000E-10  2.0000E-10  2.0000E-10  1.0000E-10  1.0000E-10  2.0000E-10  2.0000E-10   0.000    
   8    0.000      5.0000E-10  5.0000E-10  2.0000E-10  2.0000E-10  1.0000E-10  1.0000E-10  2.0000E-10  5.0000E-10   0.000    
   9    0.000      5.0000E-10  5.0000E-10  2.0000E-10  2.0000E-10  1.0000E-10  1.0000E-10  2.0000E-10  5.0000E-10   0.000    
  10    0.000      5.0000E-10  5.0000E-10  2.0000E-10  2.0000E-10  1.0000E-10  1.0000E-10  2.0000E-10  5.0000E-10  8.0000E-10
  11    0.000      1.0000E-10  1.0000E-10  1.0000E-10  1.0000E-10  1.0000E-10  1.0000E-10  2.0000E-10  5.0000E-10   0.000    
  12   1.0000E-10  1.0000E-10  1.0000E-10  1.0000E-10  1.0000E-10  1.0000E-10  1.0000E-10  1.0000E-10  2.0000E-10   0.000    
  13   1.0000E-10  1.0000E-10  2.0000E-10  2.0000E-10  2.0000E-10  2.0000E-10  2.0000E-10  1.0000E-10  1.0000E-10   0.000    
  14    0.000      2.0000E-10  5.0000E-10  5.0000E-10  5.0000E-10  5.0000E-10  5.0000E-10  2.0000E-10  1.0000E-10   0.000    
  15    0.000       0.000      8.0000E-10  8.0000E-10  8.0000E-10  8.0000E-10   0.000       0.000       0.000       0.000    

                  ET RATE =  5.000000E-09

 USING ET EXTINCTION DEPTH FROM PREVIOUS STRESS PERIOD. CURRENT PERIOD IS:      23

 USING EXTINCTION WATER CONTENT FROM PREVIOUS STRESS PERIOD. CURRENT PERIOD IS:      23

 USING AIR ENTRY PRESSURE FROM PREVIOUS STRESS PERIOD. CURRENT PERIOD IS:      23

 USING ROOT PRESSURE HEAD FROM PREVIOUS STRESS PERIOD. CURRENT PERIOD IS:      23

 USING ROOT ACTIVITY FROM PREVIOUS STRESS PERIOD. CURRENT PERIOD IS:      23

 PROCESSING AG STRESS PERIOD DATA

 READING AG STRESS PERIOD DATA

 READING IRRIGATION WELL

 END PROCESSING AG STRESS PERIOD DATA OPTIONS
 
 SOLVING FOR HEAD 
                                                   Max.-Head-Change                         Max.-Flux-Residual
  Residual-Control   Outer-Iter.   Inner-Iter.     Column Row Layer    Maximum-Head-Change  Column Row Layer    Maximum-Flux-Residual          L2-NORM 
          0                 1           2             4    7     1       0.1672189731E+00       4    7    1         0.8791972282E+01      0.1705624474E+02
          0                 2           2             4    7     1      -0.1618381646E-01       4    7    1        -0.8787512828E+00      0.1590821519E+01
          0                 3           2             4    7     1       0.1101225583E-02       4    7    1         0.6146610772E-01      0.1112764292E+00
          0                 4           1             4    7     1      -0.4376408643E-04       4    7    1        -0.2510829029E-02      0.4545713347E-02

    ------------------------------------------------
       NWT REQUIRED            4 OUTER ITERATIONS 
       AND A TOTAL OF          7 INNER ITERATIONS.
    ------------------------------------------------

 NO OUTPUT CONTROL FOR STRESS PERIOD   23   TIME STEP    1
 
 SOLVING FOR HEAD 
                                                   Max.-Head-Change                         Max.-Flux-Residual
  Residual-Control   Outer-Iter.   Inner-Iter.     Column Row Layer    Maximum-Head-Change  Column Row Layer    Maximum-Flux-Residual          L2-NORM 
          0                 1           2             4    7     1       0.1652639055E+00       4    7    1         0.8692186059E+01      0.1675382616E+02
          0                 2           2             4    7     1      -0.1606741892E-01       4    7    1        -0.8687785946E+00      0.1674526929E+01
          0                 3           2             4    7     1       0.1093303065E-02       4    7    1         0.6076841927E-01      0.1171313014E+00
          0                 4           1             4    7     1      -0.4344901846E-04       4    7    1        -0.2482315796E-02      0.4784876933E-02

    ------------------------------------------------
       NWT REQUIRED            4 OUTER ITERATIONS 
       AND A TOTAL OF          7 INNER ITERATIONS.
    ------------------------------------------------

 NO OUTPUT CONTROL FOR STRESS PERIOD   23   TIME STEP    2
 
 SOLVING FOR HEAD 
                                                   Max.-Head-Change                         Max.-Flux-Residual
  Residual-Control   Outer-Iter.   Inner-Iter.     Column Row Layer    Maximum-Head-Change  Column Row Layer    Maximum-Flux-Residual          L2-NORM 
          0                 1           2             4    7     1       0.1632130045E+00       4    7    1         0.8586678455E+01      0.1646690878E+02
          0                 2           2             4    6     1      -0.1348890138E-01       4    6    1        -0.7552269297E+00      0.1486469582E+01
          0                 3           2             4    7     1       0.2732376171E-02       4    7    1         0.1467894637E+00      0.1771143797E+00
          0                 4           1             4    7     1       0.7304252666E-03       4    7    1         0.3983300249E-01      0.4012549768E-01
          0                 5           1             4    7     1       0.1952585259E-03       4    7    1         0.1062538629E-01      0.1062712095E-01
          0                 6           1             4    7     1       0.5219686078E-04       4    7    1         0.2840431711E-02      0.2840609301E-02

    ------------------------------------------------
       NWT REQUIRED            6 OUTER ITERATIONS 
       AND A TOTAL OF          9 INNER ITERATIONS.
    ------------------------------------------------

 NO OUTPUT CONTROL FOR STRESS PERIOD   23   TIME STEP    3
 
 SOLVING FOR HEAD 
                                                   Max.-Head-Change                         Max.-Flux-Residual
  Residual-Control   Outer-Iter.   Inner-Iter.     Column Row Layer    Maximum-Head-Change  Column Row Layer    Maximum-Flux-Residual          L2-NORM 
          0                 1           2             4    7     1       0.1597247855E+00       4    7    1         0.8401735397E+01      0.1617974141E+02
          0                 2           2             4    7     1       0.3734667764E-01       4    7    1         0.2000648685E+01      0.3151780641E+01
          0                 3           2             4    8     1       0.8051869019E-02       4    8    1         0.4390347670E+00      0.6834756562E+00
          0                 4           2             4    8     1       0.2162270291E-02       4    8    1         0.1171299392E+00      0.1745068106E+00
          0                 5           2             4    8     1       0.5806668596E-03       4    8    1         0.3150428963E-01      0.4661419840E-01
          0                 6           2             4    8     1       0.1559361541E-03       4    8    1         0.8458286897E-02      0.1247937739E-01
          0                 7           1             4    8     1       0.4187640187E-04       4    8    1         0.2271530632E-02      0.3342961392E-02

    ------------------------------------------------
       NWT REQUIRED            7 OUTER ITERATIONS 
       AND A TOTAL OF         13 INNER ITERATIONS.
    ------------------------------------------------

 NO OUTPUT CONTROL FOR STRESS PERIOD   23   TIME STEP    4
 
 SOLVING FOR HEAD 
                                                   Max.-Head-Change                         Max.-Flux-Residual
  Residual-Control   Outer-Iter.   Inner-Iter.     Column Row Layer    Maximum-Head-Change  Column Row Layer    Maximum-Flux-Residual          L2-NORM 
          0                 1           2             4    7     1       0.1567192682E+00       4    7    1         0.8244756310E+01      0.1582670277E+02
          0                 2           2             4    6     1       0.3754114588E-01       4    6    1         0.2041829807E+01      0.3188753803E+01
          0                 3           2             4    6     1       0.1000900265E-01       4    6    1         0.5467586829E+00      0.5868183897E+00
          0                 4           2             4    6     1       0.2668481925E-02       4    6    1         0.1454314429E+00      0.1461514435E+00
          0                 5           2             4    6     1       0.7114396387E-03       4    6    1         0.3879970699E-01      0.3880391177E-01
          0                 6           2             4    6     1       0.1896757801E-03       4    6    1         0.1034324501E-01      0.1034340666E-01
          0                 7           1             4    6     1       0.5056915862E-04       4    6    1         0.2757640711E-02      0.2757672633E-02

    ------------------------------------------------
       NWT REQUIRED            7 OUTER ITERATIONS 
       AND A TOTAL OF         13 INNER ITERATIONS.
    ------------------------------------------------

 NO OUTPUT CONTROL FOR STRESS PERIOD   23   TIME STEP    5
 
 SOLVING FOR HEAD 
                                                   Max.-Head-Change                         Max.-Flux-Residual
  Residual-Control   Outer-Iter.   Inner-Iter.     Column Row Layer    Maximum-Head-Change  Column Row Layer    Maximum-Flux-Residual          L2-NORM 
          0                 1           2             4    7     1       0.1566042206E+00       4    7    1         0.8248679055E+01      0.1550092407E+02
          0                 2           2             4    7     1      -0.1515975134E-01       4    7    1        -0.8244531691E+00      0.1448876631E+01
          0                 3           2             4    7     1       0.1031544278E-02       4    7    1         0.5766816862E-01      0.1013483941E+00
          0                 4           1             4    7     1      -0.4099494989E-04       4    7    1        -0.2355691735E-02      0.4140200013E-02

    ------------------------------------------------
       NWT REQUIRED            4 OUTER ITERATIONS 
       AND A TOTAL OF          7 INNER ITERATIONS.
    ------------------------------------------------

 NO OUTPUT CONTROL FOR STRESS PERIOD   23   TIME STEP    6
 
 SOLVING FOR HEAD 
                                                   Max.-Head-Change                         Max.-Flux-Residual
  Residual-Control   Outer-Iter.   Inner-Iter.     Column Row Layer    Maximum-Head-Change  Column Row Layer    Maximum-Flux-Residual          L2-NORM 
          0                 1           2             4    7     1       0.1545199339E+00       4    7    1         0.8140275671E+01      0.1526168076E+02
          0                 2           2             4    7     1      -0.1502290901E-01       4    7    1        -0.8136184351E+00      0.1525402252E+01
          0                 3           2             4    7     1       0.1022230624E-02       4    7    1         0.5691018238E-01      0.1067010682E+00
          0                 4           1             4    7     1      -0.4062461215E-04       4    7    1        -0.2324716354E-02      0.4358851744E-02

    ------------------------------------------------
       NWT REQUIRED            4 OUTER ITERATIONS 
       AND A TOTAL OF          7 INNER ITERATIONS.
    ------------------------------------------------

 NO OUTPUT CONTROL FOR STRESS PERIOD   23   TIME STEP    7
 
 SOLVING FOR HEAD 
                                                   Max.-Head-Change                         Max.-Flux-Residual
  Residual-Control   Outer-Iter.   Inner-Iter.     Column Row Layer    Maximum-Head-Change  Column Row Layer    Maximum-Flux-Residual          L2-NORM 
          0                 1           2             4    7     1       0.1513446038E+00       4    7    1         0.8028479790E+01      0.1388979241E+02
          0                 2           2             4    7     1       0.3278952431E-01       4    7    1         0.1805947093E+01      0.2131872859E+01
          0                 3           2             4    7     1       0.8750402196E-02       4    7    1         0.4755959027E+00      0.4823158110E+00
          0                 4           1             4    7     1       0.2333745012E-02       4    7    1         0.1272918281E+00      0.1273225318E+00
          0                 5           1             4    7     1       0.6224132426E-03       4    7    1         0.3393045680E-01      0.3393150030E-01
          0                 6           1             4    7     1       0.1659985721E-03       4    7    1         0.9050070722E-02      0.9050159157E-02
          0                 7           1             4    7     1       0.4427207637E-04       4    7    1         0.2413635709E-02      0.2413665006E-02

    ------------------------------------------------
       NWT REQUIRED            7 OUTER ITERATIONS 
       AND A TOTAL OF         10 INNER ITERATIONS.
    ------------------------------------------------

 NO OUTPUT CONTROL FOR STRESS PERIOD   23   TIME STEP    8
 
 SOLVING FOR HEAD 
                                                   Max.-Head-Change                         Max.-Flux-Residual
  Residual-Control   Outer-Iter.   Inner-Iter.     Column Row Layer    Maximum-Head-Change  Column Row Layer    Maximum-Flux-Residual          L2-NORM 
          0                 1           2             4    7     1       0.1438748857E+00       4    7    1         0.7702956254E+01      0.1232493738E+02
          0                 2           2             4    6     1      -0.1210787695E-01       4    6    1        -0.6730847663E+00      0.1004962532E+01
          0                 3           2             4    6     1       0.8238904250E-03       4    6    1         0.4719763232E-01      0.7326534770E-01
          0                 4           1             4    7     1       0.3368479403E-04       4    7    1         0.1982246809E-02      0.3402055379E-02

    ------------------------------------------------
       NWT REQUIRED            4 OUTER ITERATIONS 
       AND A TOTAL OF          7 INNER ITERATIONS.
    ------------------------------------------------

 NO OUTPUT CONTROL FOR STRESS PERIOD   23   TIME STEP    9
 
 SOLVING FOR HEAD 
                                                   Max.-Head-Change                         Max.-Flux-Residual
  Residual-Control   Outer-Iter.   Inner-Iter.     Column Row Layer    Maximum-Head-Change  Column Row Layer    Maximum-Flux-Residual          L2-NORM 
          0                 1           2             4    7     1       0.1388317750E+00       4    7    1         0.7425367794E+01      0.1204320217E+02
          0                 2           2             4    6     1       0.2074979184E-01       4    6    1         0.1151860160E+01      0.1528758721E+01
          0                 3           2             4    6     1       0.5531753510E-02       4    6    1         0.3002742004E+00      0.3085529660E+00
          0                 4           2             4    6     1       0.1474735518E-02       4    6    1         0.8047985886E-01      0.8052049751E-01
          0                 5           2             4    6     1       0.3931562741E-03       4    6    1         0.2143828978E-01      0.2143913086E-01
          0                 6           1             4    6     1       0.1048132970E-03       4    6    1         0.5715620265E-02      0.5715777160E-02
          0                 7           1             4    6     1       0.2794264824E-04       4    6    1         0.1523738249E-02      0.1523783256E-02

    ------------------------------------------------
       NWT REQUIRED            7 OUTER ITERATIONS 
       AND A TOTAL OF         12 INNER ITERATIONS.
    ------------------------------------------------

 NO OUTPUT CONTROL FOR STRESS PERIOD   23   TIME STEP   10
 
 SOLVING FOR HEAD 
                                                   Max.-Head-Change                         Max.-Flux-Residual
  Residual-Control   Outer-Iter.   Inner-Iter.     Column Row Layer    Maximum-Head-Change  Column Row Layer    Maximum-Flux-Residual          L2-NORM 
          0                 1           2             4    7     1       0.1354904988E+00       4    7    1         0.7245273398E+01      0.1066324074E+02
          0                 2           2             4    6     1       0.2809958264E-01       4    6    1         0.1545350837E+01      0.1765189576E+01
          0                 3           2             4    6     1      -0.2731938354E-02       4    6    1        -0.1541055370E+00      0.1655078818E+00
          0                 4           2             4    6     1       0.1859000405E-03       4    6    1         0.1075570596E-01      0.1105052597E-01
          0                 5           1             4    6     1      -0.7388215204E-05       4    6    1        -0.4384326674E-03      0.4400371789E-03

    ------------------------------------------------
       NWT REQUIRED            5 OUTER ITERATIONS 
       AND A TOTAL OF          9 INNER ITERATIONS.
    ------------------------------------------------

 NO OUTPUT CONTROL FOR STRESS PERIOD   23   TIME STEP   11
 
 SOLVING FOR HEAD 
                                                   Max.-Head-Change                         Max.-Flux-Residual
  Residual-Control   Outer-Iter.   Inner-Iter.     Column Row Layer    Maximum-Head-Change  Column Row Layer    Maximum-Flux-Residual          L2-NORM 
          0                 1           2             4    7     1       0.1322236686E+00       4    7    1         0.7069073347E+01      0.1038394658E+02
          0                 2           2             4    7     1      -0.1285551356E-01       4    7    1        -0.7065729267E+00      0.1037915096E+01
          0                 3           2             4    7     1       0.8747579156E-03       4    7    1         0.4942306809E-01      0.7260458378E-01
          0                 4           1             4    7     1      -0.3476450826E-04       4    7    1        -0.2018913928E-02      0.2966178662E-02

    ------------------------------------------------
       NWT REQUIRED            4 OUTER ITERATIONS 
       AND A TOTAL OF          7 INNER ITERATIONS.
    ------------------------------------------------

 NO OUTPUT CONTROL FOR STRESS PERIOD   23   TIME STEP   12
 
 SOLVING FOR HEAD 
                                                   Max.-Head-Change                         Max.-Flux-Residual
  Residual-Control   Outer-Iter.   Inner-Iter.     Column Row Layer    Maximum-Head-Change  Column Row Layer    Maximum-Flux-Residual          L2-NORM 
          0                 1           2             4    6     1       0.1101150686E+00       4    6    1         0.5941469959E+01      0.7828869323E+01
          0                 2           2             4    6     1      -0.1070591604E-01       4    6    1        -0.5938585134E+00      0.7825477285E+00
          0                 3           2             4    6     1       0.7284956891E-03       4    6    1         0.4153934677E-01      0.5474384219E-01
          0                 4           1             4    6     1      -0.2895221203E-04       4    6    1        -0.1696885568E-02      0.2236687185E-02

    ------------------------------------------------
       NWT REQUIRED            4 OUTER ITERATIONS 
       AND A TOTAL OF          7 INNER ITERATIONS.
    ------------------------------------------------

 NO OUTPUT CONTROL FOR STRESS PERIOD   23   TIME STEP   13
 
 SOLVING FOR HEAD 
                                                   Max.-Head-Change                         Max.-Flux-Residual
  Residual-Control   Outer-Iter.   Inner-Iter.     Column Row Layer    Maximum-Head-Change  Column Row Layer    Maximum-Flux-Residual          L2-NORM 
          0                 1           2             4    6     1       0.1061226667E+00       4    6    1         0.5721379779E+01      0.7648427312E+01
          0                 2           2             4    6     1      -0.1031774117E-01       4    6    1        -0.5718591754E+00      0.7645118574E+00
          0                 3           2             4    6     1       0.7020817135E-03       4    6    1         0.4000051537E-01      0.5348229613E-01
          0                 4           1             4    6     1      -0.2790243690E-04       4    6    1        -0.1634022526E-02      0.2185162271E-02

    ------------------------------------------------
       NWT REQUIRED            4 OUTER ITERATIONS 
       AND A TOTAL OF          7 INNER ITERATIONS.
    ------------------------------------------------

 NO OUTPUT CONTROL FOR STRESS PERIOD   23   TIME STEP   14
 
 SOLVING FOR HEAD 
                                                   Max.-Head-Change                         Max.-Flux-Residual
  Residual-Control   Outer-Iter.   Inner-Iter.     Column Row Layer    Maximum-Head-Change  Column Row Layer    Maximum-Flux-Residual          L2-NORM 
          0                 1           2             4    6     1       0.1023570372E+00       4    6    1         0.5513934179E+01      0.7480469107E+01
          0                 2           2             4    6     1      -0.9951615456E-02       4    6    1        -0.5511237688E+00      0.7477237334E+00
          0                 3           2             4    6     1       0.6771681141E-03       4    6    1         0.3855009519E-01      0.5230792668E-01
          0                 4           1             4    6     1      -0.2691229141E-04       4    6    1        -0.1574771225E-02      0.2137179020E-02

    ------------------------------------------------
       NWT REQUIRED            4 OUTER ITERATIONS 
       AND A TOTAL OF          7 INNER ITERATIONS.
    ------------------------------------------------

 NO OUTPUT CONTROL FOR STRESS PERIOD   23   TIME STEP   15
 
 SOLVING FOR HEAD 
                                                   Max.-Head-Change                         Max.-Flux-Residual
  Residual-Control   Outer-Iter.   Inner-Iter.     Column Row Layer    Maximum-Head-Change  Column Row Layer    Maximum-Flux-Residual          L2-NORM 
          0                 1           2             4    6     1       0.9880317818E-01       4    6    1         0.5318290126E+01      0.7323720631E+01
          0                 2           2             4    6     1      -0.9606080250E-02       4    6    1        -0.5315680256E+00      0.7320562679E+00
          0                 3           2             4    6     1       0.6536556340E-03       4    6    1         0.3718219172E-01      0.5121212191E-01
          0                 4           1             4    6     1      -0.2597783199E-04       4    6    1        -0.1518890887E-02      0.2092892010E-02

    ------------------------------------------------
       NWT REQUIRED            4 OUTER ITERATIONS 
       AND A TOTAL OF          7 INNER ITERATIONS.
    ------------------------------------------------

 NO OUTPUT CONTROL FOR STRESS PERIOD   23   TIME STEP   16
 
 SOLVING FOR HEAD 
                                                   Max.-Head-Change                         Max.-Flux-Residual
  Residual-Control   Outer-Iter.   Inner-Iter.     Column Row Layer    Maximum-Head-Change  Column Row Layer    Maximum-Flux-Residual          L2-NORM 
          0                 1           2             4    7     1       0.4483248924E-01       4    7    1         0.2381197105E+01      0.5047776694E+01
          0                 2           2             4    7     1      -0.4358687711E-02       4    7    1        -0.2379952637E+00      0.5046005343E+00
          0                 3           2             4    7     1       0.2965886746E-03       4    7    1         0.1664721558E-01      0.3530471888E-01
          0                 4           1             4    7     1      -0.1178689163E-04       4    7    1        -0.6800265346E-03      0.1442787579E-02

    ------------------------------------------------
       NWT REQUIRED            4 OUTER ITERATIONS 
       AND A TOTAL OF          7 INNER ITERATIONS.
    ------------------------------------------------

 NO OUTPUT CONTROL FOR STRESS PERIOD   23   TIME STEP   17
 
 SOLVING FOR HEAD 
                                                   Max.-Head-Change                         Max.-Flux-Residual
  Residual-Control   Outer-Iter.   Inner-Iter.     Column Row Layer    Maximum-Head-Change  Column Row Layer    Maximum-Flux-Residual          L2-NORM 
          0                 1           2             4    7     1       0.4388703285E-01       4    7    1         0.2329402222E+01      0.4971193527E+01
          0                 2           2             4    7     1      -0.4266766298E-02       4    7    1        -0.2328183133E+00      0.4969442336E+00
          0                 3           2             4    7     1       0.2903337243E-03       4    7    1         0.1628509247E-01      0.3476899063E-01
          0                 4           1             4    7     1      -0.1153830167E-04       4    7    1        -0.6652335169E-03      0.1420891462E-02

    ------------------------------------------------
       NWT REQUIRED            4 OUTER ITERATIONS 
       AND A TOTAL OF          7 INNER ITERATIONS.
    ------------------------------------------------

 NO OUTPUT CONTROL FOR STRESS PERIOD   23   TIME STEP   18
 
 SOLVING FOR HEAD 
                                                   Max.-Head-Change                         Max.-Flux-Residual
  Residual-Control   Outer-Iter.   Inner-Iter.     Column Row Layer    Maximum-Head-Change  Column Row Layer    Maximum-Flux-Residual          L2-NORM 
          0                 1           2             4    7     1       0.4298924714E-01       4    7    1         0.2280279506E+01      0.4898031045E+01
          0                 2           2             4    7     1      -0.4179479713E-02       4    7    1        -0.2279084531E+00      0.4896299146E+00
          0                 3           2             4    7     1       0.2843941641E-03       4    7    1         0.1594165239E-01      0.3425718088E-01
          0                 4           1             4    7     1      -0.1130224623E-04       4    7    1        -0.6512037144E-03      0.1399965769E-02

    ------------------------------------------------
       NWT REQUIRED            4 OUTER ITERATIONS 
       AND A TOTAL OF          7 INNER ITERATIONS.
    ------------------------------------------------

 NO OUTPUT CONTROL FOR STRESS PERIOD   23   TIME STEP   19
 
 SOLVING FOR HEAD 
                                                   Max.-Head-Change                         Max.-Flux-Residual
  Residual-Control   Outer-Iter.   Inner-Iter.     Column Row Layer    Maximum-Head-Change  Column Row Layer    Maximum-Flux-Residual          L2-NORM 
          0                 1           2             4    7     1       0.4213557888E-01       4    7    1         0.2233628437E+01      0.4827976566E+01
          0                 2           2             4    7     1      -0.4096482488E-02       4    7    1        -0.2232456407E+00      0.4826262366E+00
          0                 3           2             4    7     1       0.2787464860E-03       4    7    1         0.1561549339E-01      0.3376722992E-01
          0                 4           1             4    7     1      -0.1107779173E-04       4    7    1        -0.6378798992E-03      0.1379956861E-02

    ------------------------------------------------
       NWT REQUIRED            4 OUTER ITERATIONS 
       AND A TOTAL OF          7 INNER ITERATIONS.
    ------------------------------------------------

 NO OUTPUT CONTROL FOR STRESS PERIOD   23   TIME STEP   20
 
 SOLVING FOR HEAD 
                                                   Max.-Head-Change                         Max.-Flux-Residual
  Residual-Control   Outer-Iter.   Inner-Iter.     Column Row Layer    Maximum-Head-Change  Column Row Layer    Maximum-Flux-Residual          L2-NORM 
          0                 1           2             4    7     1       0.4132302721E-01       4    7    1         0.2189279384E+01      0.4760777625E+01
          0                 2           2             4    7     1      -0.4017482864E-02       4    7    1        -0.2188129210E+00      0.4759064540E+00
          0                 3           2             4    7     1       0.2733708350E-03       4    7    1         0.1530542936E-01      0.3329691489E-01
          0                 4           1             4    7     1      -0.1086414829E-04       4    7    1        -0.6252135890E-03      0.1360729605E-02

    ------------------------------------------------
       NWT REQUIRED            4 OUTER ITERATIONS 
       AND A TOTAL OF          7 INNER ITERATIONS.
    ------------------------------------------------

 NO OUTPUT CONTROL FOR STRESS PERIOD   23   TIME STEP   21
 
 SOLVING FOR HEAD 
                                                   Max.-Head-Change                         Max.-Flux-Residual
  Residual-Control   Outer-Iter.   Inner-Iter.     Column Row Layer    Maximum-Head-Change  Column Row Layer    Maximum-Flux-Residual          L2-NORM 
          0                 1           2             4    7     1       0.4054844566E-01       4    7    1         0.2147054859E+01      0.4696179670E+01
          0                 2           2             4    7     1      -0.3942174921E-02       4    7    1        -0.2145925539E+00      0.4694502316E+00
          0                 3           2             4    7     1       0.2682463942E-03       4    7    1         0.1501021942E-01      0.3284512353E-01
          0                 4           1             4    7     1      -0.1066048906E-04       4    7    1        -0.6131540777E-03      0.1342250987E-02

    ------------------------------------------------
       NWT REQUIRED            4 OUTER ITERATIONS 
       AND A TOTAL OF          7 INNER ITERATIONS.
    ------------------------------------------------

 NO OUTPUT CONTROL FOR STRESS PERIOD   23   TIME STEP   22
 
 SOLVING FOR HEAD 
                                                   Max.-Head-Change                         Max.-Flux-Residual
  Residual-Control   Outer-Iter.   Inner-Iter.     Column Row Layer    Maximum-Head-Change  Column Row Layer    Maximum-Flux-Residual          L2-NORM 
          0                 1           2             4    7     1       0.3980932931E-01       4    7    1         0.2106813622E+01      0.4633968628E+01
          0                 2           2             4    7     1      -0.3870315120E-02       4    7    1        -0.2105704219E+00      0.4632308864E+00
          0                 3           2             4    7     1       0.2633565924E-03       4    7    1         0.1472887605E-01      0.3240997002E-01
          0                 4           1             4    7     1      -0.1046615574E-04       4    7    1        -0.6016610864E-03      0.1324479969E-02

    ------------------------------------------------
       NWT REQUIRED            4 OUTER ITERATIONS 
       AND A TOTAL OF          7 INNER ITERATIONS.
    ------------------------------------------------

 NO OUTPUT CONTROL FOR STRESS PERIOD   23   TIME STEP   23
 
 SOLVING FOR HEAD 
                                                   Max.-Head-Change                         Max.-Flux-Residual
  Residual-Control   Outer-Iter.   Inner-Iter.     Column Row Layer    Maximum-Head-Change  Column Row Layer    Maximum-Flux-Residual          L2-NORM 
          0                 1           2             4    7     1       0.3910312647E-01       4    7    1         0.2068411199E+01      0.4573958023E+01
          0                 2           2             4    7     1      -0.3801655367E-02       4    7    1        -0.2067320843E+00      0.4572315104E+00
          0                 3           2             4    7     1       0.2586845454E-03       4    7    1         0.1446038910E-01      0.3199016668E-01
          0                 4           1             4    7     1      -0.1028047645E-04       4    7    1        -0.5906932536E-03      0.1307314412E-02

    ------------------------------------------------
       NWT REQUIRED            4 OUTER ITERATIONS 
       AND A TOTAL OF          7 INNER ITERATIONS.
    ------------------------------------------------

 NO OUTPUT CONTROL FOR STRESS PERIOD   23   TIME STEP   24
 
 SOLVING FOR HEAD 
                                                   Max.-Head-Change                         Max.-Flux-Residual
  Residual-Control   Outer-Iter.   Inner-Iter.     Column Row Layer    Maximum-Head-Change  Column Row Layer    Maximum-Flux-Residual          L2-NORM 
          0                 1           2             4    7     1       0.3842761785E-01       4    7    1         0.2031722588E+01      0.4515983524E+01
          0                 2           2             4    7     1      -0.3735979889E-02       4    7    1        -0.2030650471E+00      0.4514357336E+00
          0                 3           2             4    7     1       0.2542155714E-03       4    7    1         0.1420388462E-01      0.3158462955E-01
          0                 4           1             4    7     1      -0.1010286807E-04       4    7    1        -0.5802149481E-03      0.1290737215E-02

    ------------------------------------------------
       NWT REQUIRED            4 OUTER ITERATIONS 
       AND A TOTAL OF          7 INNER ITERATIONS.
    ------------------------------------------------

 NO OUTPUT CONTROL FOR STRESS PERIOD   23   TIME STEP   25
 
 SOLVING FOR HEAD 
                                                   Max.-Head-Change                         Max.-Flux-Residual
  Residual-Control   Outer-Iter.   Inner-Iter.     Column Row Layer    Maximum-Head-Change  Column Row Layer    Maximum-Flux-Residual          L2-NORM 
          0                 1           2             4    7     1       0.3778049533E-01       4    7    1         0.1996618120E+01      0.4459870771E+01
          0                 2           2             4    7     1      -0.3673064278E-02       4    7    1        -0.1995563493E+00      0.4458261726E+00
          0                 3           2             4    7     1       0.2499343999E-03       4    7    1         0.1395845598E-01      0.3119210934E-01
          0                 4           1             4    7     1      -0.9932723751E-05       4    7    1        -0.5701891046E-03      0.1274704503E-02

    ------------------------------------------------
       NWT REQUIRED            4 OUTER ITERATIONS 
       AND A TOTAL OF          7 INNER ITERATIONS.
    ------------------------------------------------

 NO OUTPUT CONTROL FOR STRESS PERIOD   23   TIME STEP   26
 
 SOLVING FOR HEAD 
                                                   Max.-Head-Change                         Max.-Flux-Residual
  Residual-Control   Outer-Iter.   Inner-Iter.     Column Row Layer    Maximum-Head-Change  Column Row Layer    Maximum-Flux-Residual          L2-NORM 
          0                 1           2             4    7     1       0.3716003659E-01       4    7    1         0.1963000029E+01      0.4405507493E+01
          0                 2           2             4    7     1      -0.3612741077E-02       4    7    1        -0.1961962189E+00      0.4403913726E+00
          0                 3           2             4    7     1       0.2458296348E-03       4    7    1         0.1372341959E-01      0.3081183764E-01
          0                 4           1             4    7     1      -0.9769590359E-05       4    7    1        -0.5605877966E-03      0.1259151325E-02

    ------------------------------------------------
       NWT REQUIRED            4 OUTER ITERATIONS 
       AND A TOTAL OF          7 INNER ITERATIONS.
    ------------------------------------------------

 NO OUTPUT CONTROL FOR STRESS PERIOD   23   TIME STEP   27
 
 SOLVING FOR HEAD 
                                                   Max.-Head-Change                         Max.-Flux-Residual
  Residual-Control   Outer-Iter.   Inner-Iter.     Column Row Layer    Maximum-Head-Change  Column Row Layer    Maximum-Flux-Residual          L2-NORM 
          0                 1           2             4    7     1       0.3656425870E-01       4    7    1         0.1930757107E+01      0.4352752254E+01
          0                 2           2             4    7     1      -0.3554817459E-02       4    7    1        -0.1929735403E+00      0.4350856536E+00
          0                 3           2             4    7     1       0.2418881557E-03       4    7    1         0.1349799795E-01      0.3044060654E-01
          0                 4           1             4    7     1      -0.9612946595E-05       4    7    1        -0.5513792712E-03      0.1243984521E-02

    ------------------------------------------------
       NWT REQUIRED            4 OUTER ITERATIONS 
       AND A TOTAL OF          7 INNER ITERATIONS.
    ------------------------------------------------

 NO OUTPUT CONTROL FOR STRESS PERIOD   23   TIME STEP   28
 
 SOLVING FOR HEAD 
                                                   Max.-Head-Change                         Max.-Flux-Residual
  Residual-Control   Outer-Iter.   Inner-Iter.     Column Row Layer    Maximum-Head-Change  Column Row Layer    Maximum-Flux-Residual          L2-NORM 
          0                 1           2             4    7     1       0.3599173466E-01       4    7    1         0.1899808456E+01      0.4301534294E+01
          0                 2           2             4    7     1      -0.3499154130E-02       4    7    1        -0.1898802275E+00      0.4299456379E+00
          0                 3           2             4    7     1       0.2381004834E-03       4    7    1         0.1328162544E-01      0.3008093537E-01
          0                 4           1             4    7     1      -0.9462415531E-05       4    7    1        -0.5425404192E-03      0.1229283131E-02

    ------------------------------------------------
       NWT REQUIRED            4 OUTER ITERATIONS 
       AND A TOTAL OF          7 INNER ITERATIONS.
    ------------------------------------------------

 NO OUTPUT CONTROL FOR STRESS PERIOD   23   TIME STEP   29
 
 SOLVING FOR HEAD 
                                                   Max.-Head-Change                         Max.-Flux-Residual
  Residual-Control   Outer-Iter.   Inner-Iter.     Column Row Layer    Maximum-Head-Change  Column Row Layer    Maximum-Flux-Residual          L2-NORM 
          0                 1           2             4    7     1       0.3544075779E-01       4    7    1         0.1870058205E+01      0.4251774144E+01
          0                 2           2             4    7     1      -0.3445587023E-02       4    7    1        -0.1869066979E+00      0.4250228774E+00
          0                 3           2             4    7     1       0.2344554538E-03       4    7    1         0.1307363174E-01      0.2973651210E-01
          0                 4           1             4    7     1      -0.9317553925E-05       4    7    1        -0.5340438559E-03      0.1215190103E-02

    ------------------------------------------------
       NWT REQUIRED            4 OUTER ITERATIONS 
       AND A TOTAL OF          7 INNER ITERATIONS.
    ------------------------------------------------

 NO OUTPUT CONTROL FOR STRESS PERIOD   23   TIME STEP   30



 STREAM LISTING     PERIOD     23   STEP       30

 LAYER ROW COL. STREAM  RCH.  FLOW INTO     FLOW TO   FLOW OUT OF   OVRLND.     DIRECT     STREAM       STREAM     STREAM     STREAM   STREAMBED  STREAMBED
                SEG.NO.  NO.  STRM. RCH.    AQUIFER    STRM. RCH.    RUNOFF     PRECIP       ET          HEAD       DEPTH      WIDTH   CONDCTNC.   GRADIENT

   1    1    1     1     1    2.2000E+01  2.3088E-01   2.1769E+01  0.000E+00  0.000E+00  0.000E+00  1.09418E+03  1.132E+00  1.242E+01  5.588E-02  1.377E+00
   1    2    2     1     2    2.1769E+01  3.5689E-01   2.1413E+01  0.000E+00  0.000E+00  0.000E+00  1.08919E+03  1.127E+00  1.235E+01  8.648E-02  1.376E+00
   1    3    3     1     3    2.1413E+01  3.0372E-01   2.1109E+01  0.000E+00  0.000E+00  0.000E+00  1.08354E+03  1.121E+00  1.228E+01  7.369E-02  1.374E+00
   1    3    4     1     4    2.1109E+01  2.7914E-01   2.0830E+01  0.000E+00  0.000E+00  0.000E+00  1.07852E+03  1.117E+00  1.222E+01  6.781E-02  1.372E+00
   1    4    5     2     1    1.8830E+01  3.1306E-01   1.8517E+01  0.000E+00  0.000E+00  0.000E+00  1.07295E+03  1.014E+00  1.200E+01  7.800E-02  1.338E+00
   1    5    6     2     2    1.8517E+01  2.4027E-01   1.8276E+01  0.000E+00  0.000E+00  0.000E+00  1.06751E+03  1.005E+00  1.200E+01  6.000E-02  1.335E+00
   1    6    6     2     3    1.8276E+01  2.3980E-01   1.8037E+01  0.000E+00  0.000E+00  0.000E+00  1.06279E+03  9.967E-01  1.200E+01  6.000E-02  1.332E+00
   1    7    6     2     4    1.8037E+01  2.3933E-01   1.7797E+01  0.000E+00  0.000E+00  0.000E+00  1.05806E+03  9.888E-01  1.200E+01  6.000E-02  1.330E+00
   1    8    6     2     5    1.7797E+01  2.3885E-01   1.7558E+01  0.000E+00  0.000E+00  0.000E+00  1.05334E+03  9.808E-01  1.200E+01  6.000E-02  1.327E+00
   1    3    5     3     1    2.0000E+00  2.8252E-01   1.7175E+00  0.000E+00  0.000E+00  0.000E+00  1.07555E+03  1.909E+00  9.636E+00  7.227E-02  1.955E+00
   1    3    6     3     2    1.7175E+00  2.4905E-01   1.4684E+00  0.000E+00  0.000E+00  0.000E+00  1.07264E+03  1.727E+00  8.909E+00  6.682E-02  1.864E+00
   1    3    7     3     3    1.4684E+00  1.9718E-01   1.2712E+00  0.000E+00  0.000E+00  0.000E+00  1.06987E+03  1.555E+00  8.218E+00  5.547E-02  1.777E+00
   1    4    8     3     4    1.2712E+00  2.2567E-01   1.0456E+00  0.000E+00  0.000E+00  0.000E+00  1.06682E+03  1.364E+00  7.455E+00  6.709E-02  1.682E+00
   1    5    8     3     5    1.0456E+00  1.5790E-01   8.8768E-01  0.000E+00  0.000E+00  0.000E+00  1.06362E+03  1.164E+00  6.655E+00  4.991E-02  1.582E+00
   1    6    8     3     6    8.8768E-01  5.5980E-02   8.3170E-01  0.000E+00  0.000E+00  0.000E+00  1.06158E+03  1.036E+00  6.145E+00  1.844E-02  1.518E+00
   1    5   10     4     1    1.0000E+01  9.0919E-02   9.9091E+00  0.000E+00  0.000E+00  0.000E+00  1.07836E+03  6.368E-01  1.000E+01  2.500E-02  1.212E+00
   1    5    9     4     2    9.9091E+00  1.8158E-01   9.7275E+00  0.000E+00  0.000E+00  0.000E+00  1.07154E+03  6.315E-01  1.000E+01  5.000E-02  1.211E+00
   1    6    8     4     3    9.7275E+00  1.2689E-01   9.6006E+00  0.000E+00  0.000E+00  0.000E+00  1.06381E+03  6.256E-01  1.000E+01  3.500E-02  1.209E+00
   1    6    8     5     1    1.0432E+01  2.2686E-01   1.0205E+01  0.000E+00  0.000E+00  0.000E+00  1.05868E+03  6.790E-01  1.542E+01  6.166E-02  1.226E+00
   1    7    7     5     2    1.0205E+01  2.7894E-01   9.9265E+00  0.000E+00  0.000E+00  0.000E+00  1.05417E+03  6.732E-01  1.519E+01  7.594E-02  1.224E+00
   1    8    7     5     3    9.9265E+00  1.9221E-01   9.7343E+00  0.000E+00  0.000E+00  0.000E+00  1.04992E+03  6.676E-01  1.497E+01  5.241E-02  1.223E+00
   1    8    6     5     4    9.7343E+00  1.3577E-01   9.5985E+00  0.000E+00  0.000E+00  0.000E+00  1.04691E+03  6.637E-01  1.482E+01  3.706E-02  1.221E+00
   1    9    6     6     1    2.7157E+01  2.5677E-01   2.6900E+01  0.000E+00  0.000E+00  0.000E+00  1.04401E+03  1.280E+00  1.200E+01  6.000E-02  1.427E+00
   1   10    7     6     2    2.6900E+01  2.5634E-01   2.6644E+01  0.000E+00  0.000E+00  0.000E+00  1.03945E+03  1.272E+00  1.200E+01  6.000E-02  1.424E+00
   1   11    7     6     3    2.6644E+01  2.5590E-01   2.6388E+01  0.000E+00  0.000E+00  0.000E+00  1.03490E+03  1.265E+00  1.200E+01  6.000E-02  1.422E+00
   1   12    7     6     4    2.6388E+01  2.5546E-01   2.6132E+01  0.000E+00  0.000E+00  0.000E+00  1.03035E+03  1.258E+00  1.200E+01  6.000E-02  1.419E+00
   1   13    7     6     5    2.6132E+01  3.5951E-03   2.6129E+01  0.000E+00  0.000E+00  0.000E+00  1.02716E+03  1.254E+00  1.200E+01  2.400E-02  4.993E-02
   1   14    9     7     1    1.5000E+02  1.3357E+00   1.4866E+02  0.000E+00  0.000E+00  0.000E+00  1.03987E+03  2.288E+00  5.529E+01  5.593E-01  7.961E-01
   1   13    8     7     2    1.4866E+02  1.8457E+00   1.4682E+02  0.000E+00  0.000E+00  0.000E+00  1.03478E+03  2.279E+00  5.526E+01  6.148E-01  1.001E+00
   1   13    7     7     3    1.4682E+02  1.4947E+00   1.4532E+02  0.000E+00  0.000E+00  0.000E+00  1.02969E+03  2.270E+00  5.522E+01  5.584E-01  8.922E-01
   1   13    6     8     1    1.7145E+02  9.5462E-01   1.7050E+02  0.000E+00  0.000E+00  0.000E+00  1.02483E+03  2.959E+00  4.290E+01  4.372E-01  7.279E-01
   1   13    5     8     2    1.7050E+02  2.1043E-01   1.7029E+02  0.000E+00  0.000E+00  0.000E+00  1.01858E+03  2.955E+00  4.284E+01  4.366E-01  1.607E-01
   1   13    4     8     3    1.7029E+02 -2.3059E+00   1.7259E+02  0.000E+00  0.000E+00  0.000E+00  1.01234E+03  2.962E+00  4.294E+01  4.376E+00 -1.757E-01
   1   13    3     8     4    1.7259E+02 -3.6054E+00   1.7620E+02  0.000E+00  0.000E+00  0.000E+00  1.00611E+03  2.981E+00  4.322E+01  4.404E+00 -2.729E-01
   1   13    2     8     5    1.7620E+02 -2.5792E+00   1.7878E+02  0.000E+00  0.000E+00  0.000E+00  9.99875E+02  3.000E+00  4.350E+01  4.433E+00 -1.939E-01
   1   13    1     8     6    1.7878E+02 -1.9988E+00   1.8078E+02  0.000E+00  0.000E+00  0.000E+00  9.94890E+02  3.015E+00  4.371E+01  2.673E+00 -2.493E-01





UNSATURATED ZONE PACKAGE VOLUMETRIC BUDGET FOR  TIME STEP    30 STRESS PERIOD   23
  ------------------------------------------------------------------------------



     CUMULATIVE VOLUMES      L**3       RATES FOR THIS TIME STEP      L**3/T
     ------------------                 ------------------------

           IN:                                      IN:
           ---                                      ---
        INFILTRATION =  1000799151.8302          INFILTRATION =           0.8475

          OUT:                                     OUT:
          ----                                     ----
              UZF ET =   856680257.1613                UZF ET =           0.8475
        UZF RECHARGE =   144041782.0116          UZF RECHARGE =           0.0004

            IN - OUT =       77112.6573              IN - OUT =      -4.0675E-04

          STORAGE:                                 STORAGE:
          --------                                 --------
      STORAGE CHANGE =       77100.6003        STORAGE CHANGE =      -4.0675E-04

 PERCENT DISCREPANCY IS DIFFERENCE BETWEEN IN-OUT MINUS CHANGE IN STORAGE
 DIVIDED BY THE AVERAGE OF IN AND OUT TIMES 100

 PERCENT DISCREPANCY =           0.00     PERCENT DISCREPANCY =           0.00






1
  VOLUMETRIC BUDGET FOR AGRICULTURAL FIELDS AT  END OF TIME STEP   30, STRESS PERIOD  23
  ------------------------------------------------------------------------------

     CUMULATIVE VOLUMES      L**3       RATES FOR THIS TIME STEP      L**3/T
     ------------------                 ------------------------

           IN:                                      IN:
           ---                                      ---
           AG WELLS      =   951688192.0000             AG WELLS      =           0.0000
      DIVERSION SEGMENTS =           0.0000        DIVERSION SEGMENTS =           0.0000
           GW IRRIGATION =           0.0000             GW IRRIGATION =           0.0000
           SW IRRIGATION =           0.0000             SW IRRIGATION =           0.0000
        SYSTEM LOSSES GW =           0.0000          SYSTEM LOSSES GW =           0.0000
        SYSTEM LOSSES SW =           0.0000          SYSTEM LOSSES SW =           0.0000

                TOTAL IN =   951688192.0000                  TOTAL IN =           0.0000

          OUT:                                     OUT:
          ----                                     ----
           AG WELLS      =           0.0000             AG WELLS      =           0.0000
      DIVERSION SEGMENTS =           0.0000        DIVERSION SEGMENTS =           0.0000
           GW IRRIGATION =   951688192.0000             GW IRRIGATION =           0.0000
           SW IRRIGATION =           0.0000             SW IRRIGATION =           0.0000
        SYSTEM LOSSES GW =           0.0000          SYSTEM LOSSES GW =           0.0000
        SYSTEM LOSSES SW =           0.0000          SYSTEM LOSSES SW =           0.0000

               TOTAL OUT =   951688192.0000                 TOTAL OUT =           0.0000

                IN - OUT =           0.0000                  IN - OUT =           0.0000

     PERCENT DISCREPANCY =           0.00         PERCENT DISCREPANCY =           0.00



1
  VOLUMETRIC BUDGET FOR ENTIRE MODEL AT END OF TIME STEP   30, STRESS PERIOD  23
  ------------------------------------------------------------------------------

     CUMULATIVE VOLUMES      L**3       RATES FOR THIS TIME STEP      L**3/T
     ------------------                 ------------------------

           IN:                                      IN:
           ---                                      ---
             STORAGE     =  1168209920.0000               STORAGE     =          12.0882
       CONSTANT HEAD     =           0.0000         CONSTANT HEAD     =           0.0000
     HEAD DEP BOUNDS     =    16541015.0000       HEAD DEP BOUNDS     =           0.2858
      STREAM LEAKAGE     =   723776704.0000        STREAM LEAKAGE     =          11.7126
        UZF RECHARGE     =   144041664.0000          UZF RECHARGE     =       4.0674E-04
               GW ET     =           0.0000                 GW ET     =           0.0000
     SURFACE LEAKAGE     =           0.0000       SURFACE LEAKAGE     =           0.0000
           AG WELLS      =           0.0000             AG WELLS      =           0.0000

                TOTAL IN =  2052569344.0000                  TOTAL IN =          24.0870

          OUT:                                     OUT:
          ----                                     ----
             STORAGE     =   466232800.0000               STORAGE     =          13.3073
       CONSTANT HEAD     =           0.0000         CONSTANT HEAD     =           0.0000
     HEAD DEP BOUNDS     =    17060974.0000       HEAD DEP BOUNDS     =           0.2902
      STREAM LEAKAGE     =   600065792.0000        STREAM LEAKAGE     =          10.4894
        UZF RECHARGE     =           0.0000          UZF RECHARGE     =           0.0000
               GW ET     =    17517140.0000                 GW ET     =           0.0000
     SURFACE LEAKAGE     =           0.0000       SURFACE LEAKAGE     =           0.0000
           AG WELLS      =   951688192.0000             AG WELLS      =           0.0000

               TOTAL OUT =  2052564864.0000                 TOTAL OUT =          24.0870

                IN - OUT =        4480.0000                  IN - OUT =       9.5367E-06

     PERCENT DISCREPANCY =           0.00         PERCENT DISCREPANCY =           0.00






         TIME SUMMARY AT END OF TIME STEP   30 IN STRESS PERIOD   23
                    SECONDS     MINUTES      HOURS       DAYS        YEARS
                    -----------------------------------------------------------
   TIME STEP LENGTH  87667.      1461.1      24.352      1.0147     2.77799E-03
 STRESS PERIOD TIME 2.63000E+06  43833.      730.56      30.440     8.33397E-02
         TOTAL TIME 5.79467E+07 9.65778E+05  16096.      670.68      1.8362    
1
1
                            STRESS PERIOD NO.   24, LENGTH =   2630000.    
                            -----------------------------------------------

                              NUMBER OF TIME STEPS =    30

                               MULTIPLIER FOR DELT =     1.000

                            INITIAL TIME STEP SIZE =   87666.66    

 REUSING NON-PARAMETER GHB CELLS FROM LAST STRESS PERIOD

      2 GHB CELLS

 REUSING STREAM SEGMENT DATA FROM LAST STRESS PERIOD



            AREAL INFILTRATION RATE
 READING ON UNIT   19 WITH FORMAT: (FREE)              

            1           2           3           4           5           6           7           8           9          10
 ........................................................................................................................
   1   1.0000E-10  2.0000E-10   0.000       0.000       0.000       0.000       0.000       0.000       0.000       0.000    
   2   2.0000E-10  1.0000E-10  2.0000E-10   0.000       0.000      8.0000E-10  8.0000E-10  5.0000E-10   0.000       0.000    
   3    0.000      5.0000E-10  1.0000E-10  1.0000E-10  8.0000E-10  8.0000E-10  5.0000E-10  5.0000E-10   0.000       0.000    
   4   8.0000E-10  5.0000E-10  1.0000E-10  1.0000E-10  1.0000E-10  1.0000E-10  1.0000E-10  1.0000E-10  2.0000E-10   0.000    
   5   8.0000E-10  5.0000E-10  1.0000E-10  1.0000E-10  1.0000E-10  1.0000E-10  1.0000E-10  1.0000E-10  1.0000E-10  1.0000E-10
   6   8.0000E-10  5.0000E-10  5.0000E-10  2.0000E-10  2.0000E-10  1.0000E-10  1.0000E-10  1.0000E-10  1.0000E-10  5.0000E-10
   7   8.0000E-10  5.0000E-10  5.0000E-10  2.0000E-10  2.0000E-10  1.0000E-10  1.0000E-10  2.0000E-10  2.0000E-10   0.000    
   8    0.000      5.0000E-10  5.0000E-10  2.0000E-10  2.0000E-10  1.0000E-10  1.0000E-10  2.0000E-10  5.0000E-10   0.000    
   9    0.000      5.0000E-10  5.0000E-10  2.0000E-10  2.0000E-10  1.0000E-10  1.0000E-10  2.0000E-10  5.0000E-10   0.000    
  10    0.000      5.0000E-10  5.0000E-10  2.0000E-10  2.0000E-10  1.0000E-10  1.0000E-10  2.0000E-10  5.0000E-10  8.0000E-10
  11    0.000      1.0000E-10  1.0000E-10  1.0000E-10  1.0000E-10  1.0000E-10  1.0000E-10  2.0000E-10  5.0000E-10   0.000    
  12   1.0000E-10  1.0000E-10  1.0000E-10  1.0000E-10  1.0000E-10  1.0000E-10  1.0000E-10  1.0000E-10  2.0000E-10   0.000    
  13   1.0000E-10  1.0000E-10  2.0000E-10  2.0000E-10  2.0000E-10  2.0000E-10  2.0000E-10  1.0000E-10  1.0000E-10   0.000    
  14    0.000      2.0000E-10  5.0000E-10  5.0000E-10  5.0000E-10  5.0000E-10  5.0000E-10  2.0000E-10  1.0000E-10   0.000    
  15    0.000       0.000      8.0000E-10  8.0000E-10  8.0000E-10  8.0000E-10   0.000       0.000       0.000       0.000    

                  ET RATE =  5.000000E-10

 USING ET EXTINCTION DEPTH FROM PREVIOUS STRESS PERIOD. CURRENT PERIOD IS:      24

 USING EXTINCTION WATER CONTENT FROM PREVIOUS STRESS PERIOD. CURRENT PERIOD IS:      24

 USING AIR ENTRY PRESSURE FROM PREVIOUS STRESS PERIOD. CURRENT PERIOD IS:      24

 USING ROOT PRESSURE HEAD FROM PREVIOUS STRESS PERIOD. CURRENT PERIOD IS:      24

 USING ROOT ACTIVITY FROM PREVIOUS STRESS PERIOD. CURRENT PERIOD IS:      24

 PROCESSING AG STRESS PERIOD DATA

 READING AG STRESS PERIOD DATA

 READING IRRIGATION WELL

 END PROCESSING AG STRESS PERIOD DATA OPTIONS
 
 SOLVING FOR HEAD 
                                                   Max.-Head-Change                         Max.-Flux-Residual
  Residual-Control   Outer-Iter.   Inner-Iter.     Column Row Layer    Maximum-Head-Change  Column Row Layer    Maximum-Flux-Residual          L2-NORM 
          0                 1           2             4    7     1       0.3491001240E-01       4    7    1         0.1841432375E+01      0.4204012595E+01
          0                 2           2             4    7     1      -0.3393986278E-02       4    7    1        -0.1840455571E+00      0.4202469521E+00
          0                 3           2             4    7     1       0.2309442298E-03       4    7    1         0.1287349960E-01      0.2940222420E-01
          0                 4           1             4    7     1      -0.9178010178E-05       4    7    1        -0.5258684528E-03      0.1201527635E-02

    ------------------------------------------------
       NWT REQUIRED            4 OUTER ITERATIONS 
       AND A TOTAL OF          7 INNER ITERATIONS.
    ------------------------------------------------

 NO OUTPUT CONTROL FOR STRESS PERIOD   24   TIME STEP    1
 
 SOLVING FOR HEAD 
                                                   Max.-Head-Change                         Max.-Flux-Residual
  Residual-Control   Outer-Iter.   Inner-Iter.     Column Row Layer    Maximum-Head-Change  Column Row Layer    Maximum-Flux-Residual          L2-NORM 
          0                 1           2             4    7     1       0.3439815738E-01       4    7    1         0.1813855548E+01      0.4157913523E+01
          0                 2           2             4    7     1      -0.3344222163E-02       4    7    1        -0.1812892668E+00      0.4156361448E+00
          0                 3           2             4    7     1       0.2275579831E-03       4    7    1         0.1268070171E-01      0.2907939907E-01
          0                 4           1             4    7     1      -0.9043433382E-05       4    7    1        -0.5179926513E-03      0.1188336406E-02

    ------------------------------------------------
       NWT REQUIRED            4 OUTER ITERATIONS 
       AND A TOTAL OF          7 INNER ITERATIONS.
    ------------------------------------------------

 NO OUTPUT CONTROL FOR STRESS PERIOD   24   TIME STEP    2
 
 SOLVING FOR HEAD 
                                                   Max.-Head-Change                         Max.-Flux-Residual
  Residual-Control   Outer-Iter.   Inner-Iter.     Column Row Layer    Maximum-Head-Change  Column Row Layer    Maximum-Flux-Residual          L2-NORM 
          0                 1           2             4    7     1       0.3390396079E-01       4    7    1         0.1787258155E+01      0.4111868823E+01
          0                 2           2             4    7     1      -0.3296174900E-02       4    7    1        -0.1786308731E+00      0.4110335197E+00
          0                 3           2             4    7     1       0.2242885639E-03       4    7    1         0.1249475168E-01      0.2875740253E-01
          0                 4           1             4    7     1      -0.8913499566E-05       4    7    1        -0.5103965941E-03      0.1175181276E-02

    ------------------------------------------------
       NWT REQUIRED            4 OUTER ITERATIONS 
       AND A TOTAL OF          7 INNER ITERATIONS.
    ------------------------------------------------

 NO OUTPUT CONTROL FOR STRESS PERIOD   24   TIME STEP    3
 
 SOLVING FOR HEAD 
                                                   Max.-Head-Change                         Max.-Flux-Residual
  Residual-Control   Outer-Iter.   Inner-Iter.     Column Row Layer    Maximum-Head-Change  Column Row Layer    Maximum-Flux-Residual          L2-NORM 
          0                 1           2             4    7     1       0.3342641659E-01       4    7    1         0.1761583627E+01      0.4066919297E+01
          0                 2           2             4    7     1      -0.3249746675E-02       4    7    1        -0.1760647222E+00      0.4065403584E+00
          0                 3           2             4    7     1       0.2211293158E-03       4    7    1         0.1231525399E-01      0.2844305269E-01
          0                 4           1             4    7     1      -0.8787944628E-05       4    7    1        -0.5030641428E-03      0.1162330530E-02

    ------------------------------------------------
       NWT REQUIRED            4 OUTER ITERATIONS 
       AND A TOTAL OF          7 INNER ITERATIONS.
    ------------------------------------------------

 NO OUTPUT CONTROL FOR STRESS PERIOD   24   TIME STEP    4
 
 SOLVING FOR HEAD 
                                                   Max.-Head-Change                         Max.-Flux-Residual
  Residual-Control   Outer-Iter.   Inner-Iter.     Column Row Layer    Maximum-Head-Change  Column Row Layer    Maximum-Flux-Residual          L2-NORM 
          0                 1           2             4    7     1       0.3296446927E-01       4    7    1         0.1736772498E+01      0.4023006196E+01
          0                 2           2             4    7     1      -0.3204834866E-02       4    7    1        -0.1735848698E+00      0.4021507864E+00
          0                 3           2             4    7     1       0.2180732553E-03       4    7    1         0.1214179283E-01      0.2813594526E-01
          0                 4           1             4    7     1      -0.8666490766E-05       4    7    1        -0.4959782859E-03      0.1149777040E-02

    ------------------------------------------------
       NWT REQUIRED            4 OUTER ITERATIONS 
       AND A TOTAL OF          7 INNER ITERATIONS.
    ------------------------------------------------

 NO OUTPUT CONTROL FOR STRESS PERIOD   24   TIME STEP    5
 
 SOLVING FOR HEAD 
                                                   Max.-Head-Change                         Max.-Flux-Residual
  Residual-Control   Outer-Iter.   Inner-Iter.     Column Row Layer    Maximum-Head-Change  Column Row Layer    Maximum-Flux-Residual          L2-NORM 
          0                 1           2             4    7     1       0.3251714258E-01       4    7    1         0.1712770040E+01      0.3980067698E+01
          0                 2           2             4    7     1      -0.3161344553E-02       4    7    1        -0.1711858459E+00      0.3978586254E+00
          0                 3           2             4    7     1       0.2151139238E-03       4    7    1         0.1197398561E-01      0.2783565994E-01
          0                 4           1             4    7     1      -0.8548881130E-05       4    7    1        -0.4891233900E-03      0.1137528520E-02

    ------------------------------------------------
       NWT REQUIRED            4 OUTER ITERATIONS 
       AND A TOTAL OF          7 INNER ITERATIONS.
    ------------------------------------------------

 NO OUTPUT CONTROL FOR STRESS PERIOD   24   TIME STEP    6
 
 SOLVING FOR HEAD 
                                                   Max.-Head-Change                         Max.-Flux-Residual
  Residual-Control   Outer-Iter.   Inner-Iter.     Column Row Layer    Maximum-Head-Change  Column Row Layer    Maximum-Flux-Residual          L2-NORM 
          0                 1           2             4    7     1       0.3208366993E-01       4    7    1         0.1689532945E+01      0.3938064294E+01
          0                 2           2             4    7     1      -0.3119201204E-02       4    7    1        -0.1688633216E+00      0.3936598954E+00
          0                 3           2             4    7     1       0.2122462490E-03       4    7    1         0.1181152948E-01      0.2754189363E-01
          0                 4           1             4    7     1      -0.8434914246E-05       4    7    1        -0.4824871103E-03      0.1125500027E-02

    ------------------------------------------------
       NWT REQUIRED            4 OUTER ITERATIONS 
       AND A TOTAL OF          7 INNER ITERATIONS.
    ------------------------------------------------

 NO OUTPUT CONTROL FOR STRESS PERIOD   24   TIME STEP    7
 
 SOLVING FOR HEAD 
                                                   Max.-Head-Change                         Max.-Flux-Residual
  Residual-Control   Outer-Iter.   Inner-Iter.     Column Row Layer    Maximum-Head-Change  Column Row Layer    Maximum-Flux-Residual          L2-NORM 
          0                 1           2             4    7     1       0.3166307743E-01       4    7    1         0.1667006850E+01      0.3896944244E+01
          0                 2           2             4    7     1      -0.3078310131E-02       4    7    1        -0.1666118631E+00      0.3895495452E+00
          0                 3           2             4    7     1       0.2094637876E-03       4    7    1         0.1165404436E-01      0.2725433804E-01
          0                 4           1             4    7     1      -0.8324333956E-05       4    7    1        -0.4760538841E-03      0.1113744133E-02

    ------------------------------------------------
       NWT REQUIRED            4 OUTER ITERATIONS 
       AND A TOTAL OF          7 INNER ITERATIONS.
    ------------------------------------------------

 NO OUTPUT CONTROL FOR STRESS PERIOD   24   TIME STEP    8
 
 SOLVING FOR HEAD 
                                                   Max.-Head-Change                         Max.-Flux-Residual
  Residual-Control   Outer-Iter.   Inner-Iter.     Column Row Layer    Maximum-Head-Change  Column Row Layer    Maximum-Flux-Residual          L2-NORM 
          0                 1           2             4    7     1       0.3125459392E-01       4    7    1         0.1645148567E+01      0.3856660008E+01
          0                 2           2             4    7     1      -0.3038596357E-02       4    7    1        -0.1644271539E+00      0.3855227321E+00
          0                 3           2             4    7     1       0.2067614384E-03       4    7    1         0.1150122832E-01      0.2697261476E-01
          0                 4           1             4    7     1      -0.8216937865E-05       4    7    1        -0.4698114105E-03      0.1102236817E-02

    ------------------------------------------------
       NWT REQUIRED            4 OUTER ITERATIONS 
       AND A TOTAL OF          7 INNER ITERATIONS.
    ------------------------------------------------

 NO OUTPUT CONTROL FOR STRESS PERIOD   24   TIME STEP    9
 
 SOLVING FOR HEAD 
                                                   Max.-Head-Change                         Max.-Flux-Residual
  Residual-Control   Outer-Iter.   Inner-Iter.     Column Row Layer    Maximum-Head-Change  Column Row Layer    Maximum-Flux-Residual          L2-NORM 
          0                 1           2             4    7     1       0.3085777939E-01       4    7    1         0.1623932732E+01      0.3817186979E+01
          0                 2           2             4    7     1      -0.3000017100E-02       4    7    1        -0.1623066585E+00      0.3815767435E+00
          0                 3           2             4    7     1       0.2041362895E-03       4    7    1         0.1135290399E-01      0.2669656035E-01
          0                 4           1             4    7     1      -0.8112609694E-05       4    7    1        -0.4637524353E-03      0.1090946648E-02

    ------------------------------------------------
       NWT REQUIRED            4 OUTER ITERATIONS 
       AND A TOTAL OF          7 INNER ITERATIONS.
    ------------------------------------------------

 NO OUTPUT CONTROL FOR STRESS PERIOD   24   TIME STEP   10
 
 SOLVING FOR HEAD 
                                                   Max.-Head-Change                         Max.-Flux-Residual
  Residual-Control   Outer-Iter.   Inner-Iter.     Column Row Layer    Maximum-Head-Change  Column Row Layer    Maximum-Flux-Residual          L2-NORM 
          0                 1           2             4    7     1       0.3047169199E-01       4    7    1         0.1603307295E+01      0.3778482646E+01
          0                 2           2             4    7     1      -0.2962480769E-02       4    7    1        -0.1602451743E+00      0.3776866773E+00
          0                 3           2             4    7     1       0.2015821077E-03       4    7    1         0.1120870745E-01      0.2642440712E-01
          0                 4           1             4    7     1      -0.8011101804E-05       4    7    1        -0.4578620419E-03      0.1079840559E-02

    ------------------------------------------------
       NWT REQUIRED            4 OUTER ITERATIONS 
       AND A TOTAL OF          7 INNER ITERATIONS.
    ------------------------------------------------

 NO OUTPUT CONTROL FOR STRESS PERIOD   24   TIME STEP   11
 
 SOLVING FOR HEAD 
                                                   Max.-Head-Change                         Max.-Flux-Residual
  Residual-Control   Outer-Iter.   Inner-Iter.     Column Row Layer    Maximum-Head-Change  Column Row Layer    Maximum-Flux-Residual          L2-NORM 
          0                 1           2             4    7     1       0.3009598901E-01       4    7    1         0.1583252662E+01      0.3740530713E+01
          0                 2           2             4    7     1      -0.2925954104E-02       4    7    1        -0.1582407430E+00      0.3739143803E+00
          0                 3           2             4    7     1       0.1990966315E-03       4    7    1         0.1106850173E-01      0.2616048172E-01
          0                 4           1             4    7     1      -0.7912325086E-05       4    7    1        -0.4521347262E-03      0.1069052872E-02

    ------------------------------------------------
       NWT REQUIRED            4 OUTER ITERATIONS 
       AND A TOTAL OF          7 INNER ITERATIONS.
    ------------------------------------------------

 NO OUTPUT CONTROL FOR STRESS PERIOD   24   TIME STEP   12
 
 SOLVING FOR HEAD 
                                                   Max.-Head-Change                         Max.-Flux-Residual
  Residual-Control   Outer-Iter.   Inner-Iter.     Column Row Layer    Maximum-Head-Change  Column Row Layer    Maximum-Flux-Residual          L2-NORM 
          0                 1           2             4    7     1       0.2973009560E-01       4    7    1         0.1563736441E+01      0.3703301306E+01
          0                 2           2             4    7     1      -0.2890381151E-02       4    7    1        -0.1562901267E+00      0.3701929141E+00
          0                 3           2             4    7     1       0.1966760516E-03       4    7    1         0.1093206032E-01      0.2590011621E-01
          0                 4           1             4    7     1      -0.7816126765E-05       4    7    1        -0.4465611496E-03      0.1058400814E-02

    ------------------------------------------------
       NWT REQUIRED            4 OUTER ITERATIONS 
       AND A TOTAL OF          7 INNER ITERATIONS.
    ------------------------------------------------

 NO OUTPUT CONTROL FOR STRESS PERIOD   24   TIME STEP   13
 
 SOLVING FOR HEAD 
                                                   Max.-Head-Change                         Max.-Flux-Residual
  Residual-Control   Outer-Iter.   Inner-Iter.     Column Row Layer    Maximum-Head-Change  Column Row Layer    Maximum-Flux-Residual          L2-NORM 
          0                 1           2             4    7     1       0.2937320869E-01       4    7    1         0.1544714207E+01      0.3666745113E+01
          0                 2           2             4    7     1      -0.2855683853E-02       4    7    1        -0.1543888852E+00      0.3665387364E+00
          0                 3           2             4    7     1       0.1943150573E-03       4    7    1         0.1079907261E-01      0.2564446437E-01
          0                 4           1             4    7     1      -0.7722297195E-05       4    7    1        -0.4411286811E-03      0.1047960376E-02

    ------------------------------------------------
       NWT REQUIRED            4 OUTER ITERATIONS 
       AND A TOTAL OF          7 INNER ITERATIONS.
    ------------------------------------------------

 NO OUTPUT CONTROL FOR STRESS PERIOD   24   TIME STEP   14
 
 SOLVING FOR HEAD 
                                                   Max.-Head-Change                         Max.-Flux-Residual
  Residual-Control   Outer-Iter.   Inner-Iter.     Column Row Layer    Maximum-Head-Change  Column Row Layer    Maximum-Flux-Residual          L2-NORM 
          0                 1           2             4    7     1       0.2902524792E-01       4    7    1         0.1526180878E+01      0.3630850833E+01
          0                 2           2             4    7     1      -0.2821849906E-02       4    7    1        -0.1525365105E+00      0.3628383149E+00
          0                 3           2             4    7     1       0.1920128113E-03       4    7    1         0.1066950312E-01      0.2538558520E-01
          0                 4           1             4    7     1      -0.7630801837E-05       4    7    1        -0.4358358276E-03      0.1037380323E-02

    ------------------------------------------------
       NWT REQUIRED            4 OUTER ITERATIONS 
       AND A TOTAL OF          7 INNER ITERATIONS.
    ------------------------------------------------

 NO OUTPUT CONTROL FOR STRESS PERIOD   24   TIME STEP   15
 
 SOLVING FOR HEAD 
                                                   Max.-Head-Change                         Max.-Flux-Residual
  Residual-Control   Outer-Iter.   Inner-Iter.     Column Row Layer    Maximum-Head-Change  Column Row Layer    Maximum-Flux-Residual          L2-NORM 
          0                 1           2             4    7     1       0.2868549593E-01       4    7    1         0.1508095970E+01      0.3595677477E+01
          0                 2           2             4    7     1      -0.2788823033E-02       4    7    1        -0.1507289558E+00      0.3594348153E+00
          0                 3           2             4    7     1       0.1897654837E-03       4    7    1         0.1054306872E-01      0.2514745844E-01
          0                 4           1             4    7     1      -0.7541489875E-05       4    7    1        -0.4306710807E-03      0.1027652976E-02

    ------------------------------------------------
       NWT REQUIRED            4 OUTER ITERATIONS 
       AND A TOTAL OF          7 INNER ITERATIONS.
    ------------------------------------------------

 NO OUTPUT CONTROL FOR STRESS PERIOD   24   TIME STEP   16
 
 SOLVING FOR HEAD 
                                                   Max.-Head-Change                         Max.-Flux-Residual
  Residual-Control   Outer-Iter.   Inner-Iter.     Column Row Layer    Maximum-Head-Change  Column Row Layer    Maximum-Flux-Residual          L2-NORM 
          0                 1           2             4    7     1       0.2835379039E-01       4    7    1         0.1490450818E+01      0.3561132786E+01
          0                 2           2             4    7     1      -0.2756573982E-02       4    7    1        -0.1489653552E+00      0.3559817006E+00
          0                 3           2             4    7     1       0.1875710835E-03       4    7    1         0.1041970887E-01      0.2490586443E-01
          0                 4           1             4    7     1      -0.7454281063E-05       4    7    1        -0.4256319137E-03      0.1017774142E-02

    ------------------------------------------------
       NWT REQUIRED            4 OUTER ITERATIONS 
       AND A TOTAL OF          7 INNER ITERATIONS.
    ------------------------------------------------

 NO OUTPUT CONTROL FOR STRESS PERIOD   24   TIME STEP   17
 
 SOLVING FOR HEAD 
                                                   Max.-Head-Change                         Max.-Flux-Residual
  Residual-Control   Outer-Iter.   Inner-Iter.     Column Row Layer    Maximum-Head-Change  Column Row Layer    Maximum-Flux-Residual          L2-NORM 
          0                 1           2             4    7     1       0.2802946677E-01       4    7    1         0.1473208474E+01      0.3527166763E+01
          0                 2           2             4    7     1      -0.2725042703E-02       4    7    1        -0.1472420157E+00      0.3525864981E+00
          0                 3           2             4    7     1       0.1854255258E-03       4    7    1         0.1029916523E-01      0.2466833474E-01
          0                 4           1             4    7     1      -0.7369013072E-05       4    7    1        -0.4207077877E-03      0.1008071651E-02

    ------------------------------------------------
       NWT REQUIRED            4 OUTER ITERATIONS 
       AND A TOTAL OF          7 INNER ITERATIONS.
    ------------------------------------------------

 NO OUTPUT CONTROL FOR STRESS PERIOD   24   TIME STEP   18
 
 SOLVING FOR HEAD 
                                                   Max.-Head-Change                         Max.-Flux-Residual
  Residual-Control   Outer-Iter.   Inner-Iter.     Column Row Layer    Maximum-Head-Change  Column Row Layer    Maximum-Flux-Residual          L2-NORM 
          0                 1           2             4    7     1       0.2771229892E-01       4    7    1         0.1456356177E+01      0.3493768375E+01
          0                 2           2             4    7     1      -0.2694207066E-02       4    7    1        -0.1455576617E+00      0.3492479891E+00
          0                 3           2             4    7     1       0.1833273042E-03       4    7    1         0.1018134859E-01      0.2443479010E-01
          0                 4           1             4    7     1      -0.7285626957E-05       4    7    1        -0.4158950676E-03      0.9985498840E-03

    ------------------------------------------------
       NWT REQUIRED            4 OUTER ITERATIONS 
       AND A TOTAL OF          7 INNER ITERATIONS.
    ------------------------------------------------

 NO OUTPUT CONTROL FOR STRESS PERIOD   24   TIME STEP   19
 
 SOLVING FOR HEAD 
                                                   Max.-Head-Change                         Max.-Flux-Residual
  Residual-Control   Outer-Iter.   Inner-Iter.     Column Row Layer    Maximum-Head-Change  Column Row Layer    Maximum-Flux-Residual          L2-NORM 
          0                 1           2             4    7     1       0.2740207971E-01       4    7    1         0.1439882213E+01      0.3460913491E+01
          0                 2           2             4    7     1      -0.2664047004E-02       4    7    1        -0.1439111224E+00      0.3459637898E+00
          0                 3           2             4    7     1       0.1812750532E-03       4    7    1         0.1006617706E-01      0.2420501948E-01
          0                 4           1             4    7     1      -0.7204067341E-05       4    7    1        -0.4111903959E-03      0.9891455363E-03

    ------------------------------------------------
       NWT REQUIRED            4 OUTER ITERATIONS 
       AND A TOTAL OF          7 INNER ITERATIONS.
    ------------------------------------------------

 NO OUTPUT CONTROL FOR STRESS PERIOD   24   TIME STEP   20
 
 SOLVING FOR HEAD 
                                                   Max.-Head-Change                         Max.-Flux-Residual
  Residual-Control   Outer-Iter.   Inner-Iter.     Column Row Layer    Maximum-Head-Change  Column Row Layer    Maximum-Flux-Residual          L2-NORM 
          0                 1           2             4    7     1       0.2709835053E-01       4    7    1         0.1423761208E+01      0.3428594797E+01
          0                 2           2             4    7     1      -0.2634517928E-02       4    7    1        -0.1422998616E+00      0.3427332212E+00
          0                 3           2             4    7     1       0.1792657386E-03       4    7    1         0.9953473212E-02      0.2397900302E-01
          0                 4           1             4    7     1      -0.7124214032E-05       4    7    1        -0.4065865280E-03      0.9799078936E-03

    ------------------------------------------------
       NWT REQUIRED            4 OUTER ITERATIONS 
       AND A TOTAL OF          7 INNER ITERATIONS.
    ------------------------------------------------

 NO OUTPUT CONTROL FOR STRESS PERIOD   24   TIME STEP   21
 
 SOLVING FOR HEAD 
                                                   Max.-Head-Change                         Max.-Flux-Residual
  Residual-Control   Outer-Iter.   Inner-Iter.     Column Row Layer    Maximum-Head-Change  Column Row Layer    Maximum-Flux-Residual          L2-NORM 
          0                 1           2             4    7     1       0.2680094948E-01       4    7    1         0.1407984015E+01      0.3396787640E+01
          0                 2           2             4    7     1      -0.2605604099E-02       4    7    1        -0.1407229649E+00      0.3395537641E+00
          0                 3           2             4    7     1       0.1772982887E-03       4    7    1         0.9843173075E-02      0.2375657387E-01
          0                 4           1             4    7     1      -0.7046024776E-05       4    7    1        -0.4020808458E-03      0.9708190270E-03

    ------------------------------------------------
       NWT REQUIRED            4 OUTER ITERATIONS 
       AND A TOTAL OF          7 INNER ITERATIONS.
    ------------------------------------------------

 NO OUTPUT CONTROL FOR STRESS PERIOD   24   TIME STEP   22
 
 SOLVING FOR HEAD 
                                                   Max.-Head-Change                         Max.-Flux-Residual
  Residual-Control   Outer-Iter.   Inner-Iter.     Column Row Layer    Maximum-Head-Change  Column Row Layer    Maximum-Flux-Residual          L2-NORM 
          0                 1           2             4    7     1       0.2650945879E-01       4    7    1         0.1392527608E+01      0.3365482315E+01
          0                 2           2             4    7     1      -0.2577264897E-02       4    7    1        -0.1391781310E+00      0.3364244940E+00
          0                 3           2             4    7     1       0.1753699401E-03       4    7    1         0.9735115683E-02      0.2353764679E-01
          0                 4           1             4    7     1      -0.6969389283E-05       4    7    1        -0.3976667836E-03      0.9618504524E-03

    ------------------------------------------------
       NWT REQUIRED            4 OUTER ITERATIONS 
       AND A TOTAL OF          7 INNER ITERATIONS.
    ------------------------------------------------

 NO OUTPUT CONTROL FOR STRESS PERIOD   24   TIME STEP   23
 
 SOLVING FOR HEAD 
                                                   Max.-Head-Change                         Max.-Flux-Residual
  Residual-Control   Outer-Iter.   Inner-Iter.     Column Row Layer    Maximum-Head-Change  Column Row Layer    Maximum-Flux-Residual          L2-NORM 
          0                 1           2             4    7     1       0.2622375627E-01       4    7    1         0.1377384958E+01      0.3334663013E+01
          0                 2           2             4    7     1      -0.2549488444E-02       4    7    1        -0.1376646572E+00      0.3333437823E+00
          0                 3           2             4    7     1       0.1734798850E-03       4    7    1         0.9629251904E-02      0.2332212471E-01
          0                 4           1             4    7     1      -0.6894276123E-05       4    7    1        -0.3933423493E-03      0.9530700958E-03

    ------------------------------------------------
       NWT REQUIRED            4 OUTER ITERATIONS 
       AND A TOTAL OF          7 INNER ITERATIONS.
    ------------------------------------------------

 NO OUTPUT CONTROL FOR STRESS PERIOD   24   TIME STEP   24
 
 SOLVING FOR HEAD 
                                                   Max.-Head-Change                         Max.-Flux-Residual
  Residual-Control   Outer-Iter.   Inner-Iter.     Column Row Layer    Maximum-Head-Change  Column Row Layer    Maximum-Flux-Residual          L2-NORM 
          0                 1           2             4    7     1       0.2594359234E-01       4    7    1         0.1362542414E+01      0.3304319858E+01
          0                 2           2             4    7     1      -0.2522250472E-02       4    7    1        -0.1361811790E+00      0.3303106955E+00
          0                 3           2             4    7     1       0.1716264703E-03       4    7    1         0.9525486239E-02      0.2310991861E-01
          0                 4           1             4    7     1      -0.6820618520E-05       4    7    1        -0.3891035976E-03      0.9444044872E-03

    ------------------------------------------------
       NWT REQUIRED            4 OUTER ITERATIONS 
       AND A TOTAL OF          7 INNER ITERATIONS.
    ------------------------------------------------

 NO OUTPUT CONTROL FOR STRESS PERIOD   24   TIME STEP   25
 
 SOLVING FOR HEAD 
                                                   Max.-Head-Change                         Max.-Flux-Residual
  Residual-Control   Outer-Iter.   Inner-Iter.     Column Row Layer    Maximum-Head-Change  Column Row Layer    Maximum-Flux-Residual          L2-NORM 
          0                 1           2             4    7     1       0.2566860326E-01       4    7    1         0.1347979718E+01      0.3274437409E+01
          0                 2           2             4    7     1      -0.2495515617E-02       4    7    1        -0.1347256718E+00      0.3273236450E+00
          0                 3           2             4    7     1       0.1698072920E-03       4    7    1         0.9423677149E-02      0.2290093816E-01
          0                 4           1             4    7     1      -0.6748321956E-05       4    7    1        -0.3849447789E-03      0.9358639505E-03

    ------------------------------------------------
       NWT REQUIRED            4 OUTER ITERATIONS 
       AND A TOTAL OF          7 INNER ITERATIONS.
    ------------------------------------------------

 NO OUTPUT CONTROL FOR STRESS PERIOD   24   TIME STEP   26
 
 SOLVING FOR HEAD 
                                                   Max.-Head-Change                         Max.-Flux-Residual
  Residual-Control   Outer-Iter.   Inner-Iter.     Column Row Layer    Maximum-Head-Change  Column Row Layer    Maximum-Flux-Residual          L2-NORM 
          0                 1           2             4    7     1       0.2539871623E-01       4    7    1         0.1333692646E+01      0.3245009523E+01
          0                 2           2             4    7     1      -0.2469276802E-02       4    7    1        -0.1332977131E+00      0.3243824309E+00
          0                 3           2             4    7     1       0.1680218668E-03       4    7    1         0.9323795001E-02      0.2269516946E-01
          0                 4           1             4    7     1      -0.6677367089E-05       4    7    1        -0.3808647025E-03      0.9274544319E-03

    ------------------------------------------------
       NWT REQUIRED            4 OUTER ITERATIONS 
       AND A TOTAL OF          7 INNER ITERATIONS.
    ------------------------------------------------

 NO OUTPUT CONTROL FOR STRESS PERIOD   24   TIME STEP   27
 
 SOLVING FOR HEAD 
                                                   Max.-Head-Change                         Max.-Flux-Residual
  Residual-Control   Outer-Iter.   Inner-Iter.     Column Row Layer    Maximum-Head-Change  Column Row Layer    Maximum-Flux-Residual          L2-NORM 
          0                 1           2             4    7     1       0.2513386036E-01       4    7    1         0.1319677423E+01      0.3216013531E+01
          0                 2           2             4    7     1      -0.2443527134E-02       4    7    1        -0.1318969257E+00      0.3214836321E+00
          0                 3           2             4    7     1       0.1662697258E-03       4    7    1         0.9225813442E-02      0.2249236816E-01
          0                 4           1             4    7     1      -0.6607734577E-05       4    7    1        -0.3768622448E-03      0.9191543248E-03

    ------------------------------------------------
       NWT REQUIRED            4 OUTER ITERATIONS 
       AND A TOTAL OF          7 INNER ITERATIONS.
    ------------------------------------------------

 NO OUTPUT CONTROL FOR STRESS PERIOD   24   TIME STEP   28
 
 SOLVING FOR HEAD 
                                                   Max.-Head-Change                         Max.-Flux-Residual
  Residual-Control   Outer-Iter.   Inner-Iter.     Column Row Layer    Maximum-Head-Change  Column Row Layer    Maximum-Flux-Residual          L2-NORM 
          0                 1           2             4    7     1       0.2487357210E-01       4    7    1         0.1305908421E+01      0.3187445529E+01
          0                 2           2             4    7     1      -0.2418221544E-02       4    7    1        -0.1305207481E+00      0.3186279555E+00
          0                 3           2             4    7     1       0.1645478029E-03       4    7    1         0.9129553317E-02      0.2229254849E-01
          0                 4           1             4    7     1      -0.6539303077E-05       4    7    1        -0.3729301088E-03      0.9109870353E-03

    ------------------------------------------------
       NWT REQUIRED            4 OUTER ITERATIONS 
       AND A TOTAL OF          7 INNER ITERATIONS.
    ------------------------------------------------

 NO OUTPUT CONTROL FOR STRESS PERIOD   24   TIME STEP   29
 
 SOLVING FOR HEAD 
                                                   Max.-Head-Change                         Max.-Flux-Residual
  Residual-Control   Outer-Iter.   Inner-Iter.     Column Row Layer    Maximum-Head-Change  Column Row Layer    Maximum-Flux-Residual          L2-NORM 
          0                 1           2             4    7     1       0.2461794746E-01       4    7    1         0.1292390877E+01      0.3159299323E+01
          0                 2           2             4    7     1      -0.2393369365E-02       4    7    1        -0.1291697036E+00      0.3158145157E+00
          0                 3           2             4    7     1       0.1628567330E-03       4    7    1         0.9035051213E-02      0.2209577106E-01
          0                 4           1             4    7     1      -0.6472097916E-05       4    7    1        -0.3690697911E-03      0.9029468782E-03

    ------------------------------------------------
       NWT REQUIRED            4 OUTER ITERATIONS 
       AND A TOTAL OF          7 INNER ITERATIONS.
    ------------------------------------------------

 NO OUTPUT CONTROL FOR STRESS PERIOD   24   TIME STEP   30



 STREAM LISTING     PERIOD     24   STEP       30

 LAYER ROW COL. STREAM  RCH.  FLOW INTO     FLOW TO   FLOW OUT OF   OVRLND.     DIRECT     STREAM       STREAM     STREAM     STREAM   STREAMBED  STREAMBED
                SEG.NO.  NO.  STRM. RCH.    AQUIFER    STRM. RCH.    RUNOFF     PRECIP       ET          HEAD       DEPTH      WIDTH   CONDCTNC.   GRADIENT

   1    1    1     1     1    2.1000E+01  2.2592E-01   2.0774E+01  0.000E+00  0.000E+00  0.000E+00  1.09416E+03  1.115E+00  1.220E+01  5.490E-02  1.372E+00
   1    2    2     1     2    2.0774E+01  3.4917E-01   2.0425E+01  0.000E+00  0.000E+00  0.000E+00  1.08917E+03  1.110E+00  1.214E+01  8.495E-02  1.370E+00
   1    3    3     1     3    2.0425E+01  2.9709E-01   2.0128E+01  0.000E+00  0.000E+00  0.000E+00  1.08352E+03  1.105E+00  1.206E+01  7.238E-02  1.368E+00
   1    3    4     1     4    2.0128E+01  2.7299E-01   1.9855E+01  0.000E+00  0.000E+00  0.000E+00  1.07851E+03  1.100E+00  1.200E+01  6.659E-02  1.367E+00
   1    4    5     2     1    1.7855E+01  3.1056E-01   1.7545E+01  0.000E+00  0.000E+00  0.000E+00  1.07292E+03  9.816E-01  1.200E+01  7.800E-02  1.327E+00
   1    5    6     2     2    1.7545E+01  2.3835E-01   1.7306E+01  0.000E+00  0.000E+00  0.000E+00  1.06748E+03  9.724E-01  1.200E+01  6.000E-02  1.324E+00
   1    6    6     2     3    1.7306E+01  2.3787E-01   1.7068E+01  0.000E+00  0.000E+00  0.000E+00  1.06276E+03  9.644E-01  1.200E+01  6.000E-02  1.321E+00
   1    7    6     2     4    1.7068E+01  2.3738E-01   1.6831E+01  0.000E+00  0.000E+00  0.000E+00  1.05803E+03  9.564E-01  1.200E+01  6.000E-02  1.319E+00
   1    8    6     2     5    1.6831E+01  2.3690E-01   1.6594E+01  0.000E+00  0.000E+00  0.000E+00  1.05331E+03  9.484E-01  1.200E+01  6.000E-02  1.316E+00
   1    3    5     3     1    2.0000E+00  2.8252E-01   1.7175E+00  0.000E+00  0.000E+00  0.000E+00  1.07555E+03  1.909E+00  9.636E+00  7.227E-02  1.955E+00
   1    3    6     3     2    1.7175E+00  2.4905E-01   1.4684E+00  0.000E+00  0.000E+00  0.000E+00  1.07264E+03  1.727E+00  8.909E+00  6.682E-02  1.864E+00
   1    3    7     3     3    1.4684E+00  1.9718E-01   1.2712E+00  0.000E+00  0.000E+00  0.000E+00  1.06987E+03  1.555E+00  8.218E+00  5.547E-02  1.777E+00
   1    4    8     3     4    1.2712E+00  2.2567E-01   1.0456E+00  0.000E+00  0.000E+00  0.000E+00  1.06682E+03  1.364E+00  7.455E+00  6.709E-02  1.682E+00
   1    5    8     3     5    1.0456E+00  1.5790E-01   8.8768E-01  0.000E+00  0.000E+00  0.000E+00  1.06362E+03  1.164E+00  6.655E+00  4.991E-02  1.582E+00
   1    6    8     3     6    8.8768E-01  5.5980E-02   8.3170E-01  0.000E+00  0.000E+00  0.000E+00  1.06158E+03  1.036E+00  6.145E+00  1.844E-02  1.518E+00
   1    5   10     4     1    1.0000E+01  9.0919E-02   9.9091E+00  0.000E+00  0.000E+00  0.000E+00  1.07836E+03  6.368E-01  1.000E+01  2.500E-02  1.212E+00
   1    5    9     4     2    9.9091E+00  1.8158E-01   9.7275E+00  0.000E+00  0.000E+00  0.000E+00  1.07154E+03  6.315E-01  1.000E+01  5.000E-02  1.211E+00
   1    6    8     4     3    9.7275E+00  1.2689E-01   9.6006E+00  0.000E+00  0.000E+00  0.000E+00  1.06381E+03  6.256E-01  1.000E+01  3.500E-02  1.209E+00
   1    6    8     5     1    1.0432E+01  2.2686E-01   1.0205E+01  0.000E+00  0.000E+00  0.000E+00  1.05868E+03  6.790E-01  1.542E+01  6.166E-02  1.226E+00
   1    7    7     5     2    1.0205E+01  2.7894E-01   9.9265E+00  0.000E+00  0.000E+00  0.000E+00  1.05417E+03  6.732E-01  1.519E+01  7.594E-02  1.224E+00
   1    8    7     5     3    9.9265E+00  1.9221E-01   9.7343E+00  0.000E+00  0.000E+00  0.000E+00  1.04992E+03  6.676E-01  1.497E+01  5.241E-02  1.223E+00
   1    8    6     5     4    9.7343E+00  1.3577E-01   9.5985E+00  0.000E+00  0.000E+00  0.000E+00  1.04691E+03  6.637E-01  1.482E+01  3.706E-02  1.221E+00
   1    9    6     6     1    2.6193E+01  2.5512E-01   2.5938E+01  0.000E+00  0.000E+00  0.000E+00  1.04398E+03  1.252E+00  1.200E+01  6.000E-02  1.417E+00
   1   10    7     6     2    2.5938E+01  2.5468E-01   2.5683E+01  0.000E+00  0.000E+00  0.000E+00  1.03943E+03  1.245E+00  1.200E+01  6.000E-02  1.415E+00
   1   11    7     6     3    2.5683E+01  2.5424E-01   2.5429E+01  0.000E+00  0.000E+00  0.000E+00  1.03487E+03  1.237E+00  1.200E+01  6.000E-02  1.412E+00
   1   12    7     6     4    2.5429E+01  2.5379E-01   2.5175E+01  0.000E+00  0.000E+00  0.000E+00  1.03032E+03  1.230E+00  1.200E+01  6.000E-02  1.410E+00
   1   13    7     6     5    2.5175E+01  3.6183E-03   2.5171E+01  0.000E+00  0.000E+00  0.000E+00  1.02714E+03  1.226E+00  1.200E+01  2.400E-02  5.025E-02
   1   14    9     7     1    1.5000E+02  1.3368E+00   1.4866E+02  0.000E+00  0.000E+00  0.000E+00  1.03987E+03  2.288E+00  5.529E+01  5.593E-01  7.967E-01
   1   13    8     7     2    1.4866E+02  1.8520E+00   1.4681E+02  0.000E+00  0.000E+00  0.000E+00  1.03478E+03  2.279E+00  5.526E+01  6.148E-01  1.004E+00
   1   13    7     7     3    1.4681E+02  1.5107E+00   1.4530E+02  0.000E+00  0.000E+00  0.000E+00  1.02969E+03  2.270E+00  5.522E+01  5.584E-01  9.017E-01
   1   13    6     8     1    1.7047E+02  9.6938E-01   1.6950E+02  0.000E+00  0.000E+00  0.000E+00  1.02483E+03  2.952E+00  4.281E+01  4.362E-01  7.408E-01
   1   13    5     8     2    1.6950E+02  2.2765E-01   1.6927E+02  0.000E+00  0.000E+00  0.000E+00  1.01857E+03  2.948E+00  4.275E+01  4.356E-01  1.742E-01
   1   13    4     8     3    1.6927E+02 -2.2426E+00   1.7152E+02  0.000E+00  0.000E+00  0.000E+00  1.01233E+03  2.955E+00  4.284E+01  4.366E+00 -1.712E-01
   1   13    3     8     4    1.7152E+02 -3.5739E+00   1.7509E+02  0.000E+00  0.000E+00  0.000E+00  1.00610E+03  2.974E+00  4.312E+01  4.394E+00 -2.711E-01
   1   13    2     8     5    1.7509E+02 -2.5679E+00   1.7766E+02  0.000E+00  0.000E+00  0.000E+00  9.99868E+02  2.993E+00  4.340E+01  4.423E+00 -1.935E-01
   1   13    1     8     6    1.7766E+02 -1.9875E+00   1.7965E+02  0.000E+00  0.000E+00  0.000E+00  9.94883E+02  3.008E+00  4.361E+01  2.666E+00 -2.484E-01





UNSATURATED ZONE PACKAGE VOLUMETRIC BUDGET FOR  TIME STEP    30 STRESS PERIOD   24
  ------------------------------------------------------------------------------



     CUMULATIVE VOLUMES      L**3       RATES FOR THIS TIME STEP      L**3/T
     ------------------                 ------------------------

           IN:                                      IN:
           ---                                      ---
        INFILTRATION =  1003028076.7029          INFILTRATION =           0.8475

          OUT:                                     OUT:
          ----                                     ----
              UZF ET =   858652757.1172                UZF ET =           0.7500
        UZF RECHARGE =   144042710.8982          UZF RECHARGE =           0.0003

            IN - OUT =      332608.6876              IN - OUT =       9.7192E-02

          STORAGE:                                 STORAGE:
          --------                                 --------
      STORAGE CHANGE =      332596.6495        STORAGE CHANGE =       9.7192E-02

 PERCENT DISCREPANCY IS DIFFERENCE BETWEEN IN-OUT MINUS CHANGE IN STORAGE
 DIVIDED BY THE AVERAGE OF IN AND OUT TIMES 100

 PERCENT DISCREPANCY =           0.00     PERCENT DISCREPANCY =           0.00






1
  VOLUMETRIC BUDGET FOR AGRICULTURAL FIELDS AT  END OF TIME STEP   30, STRESS PERIOD  24
  ------------------------------------------------------------------------------

     CUMULATIVE VOLUMES      L**3       RATES FOR THIS TIME STEP      L**3/T
     ------------------                 ------------------------

           IN:                                      IN:
           ---                                      ---
           AG WELLS      =   951688192.0000             AG WELLS      =           0.0000
      DIVERSION SEGMENTS =           0.0000        DIVERSION SEGMENTS =           0.0000
           GW IRRIGATION =           0.0000             GW IRRIGATION =           0.0000
           SW IRRIGATION =           0.0000             SW IRRIGATION =           0.0000
        SYSTEM LOSSES GW =           0.0000          SYSTEM LOSSES GW =           0.0000
        SYSTEM LOSSES SW =           0.0000          SYSTEM LOSSES SW =           0.0000

                TOTAL IN =   951688192.0000                  TOTAL IN =           0.0000

          OUT:                                     OUT:
          ----                                     ----
           AG WELLS      =           0.0000             AG WELLS      =           0.0000
      DIVERSION SEGMENTS =           0.0000        DIVERSION SEGMENTS =           0.0000
           GW IRRIGATION =   951688192.0000             GW IRRIGATION =           0.0000
           SW IRRIGATION =           0.0000             SW IRRIGATION =           0.0000
        SYSTEM LOSSES GW =           0.0000          SYSTEM LOSSES GW =           0.0000
        SYSTEM LOSSES SW =           0.0000          SYSTEM LOSSES SW =           0.0000

               TOTAL OUT =   951688192.0000                 TOTAL OUT =           0.0000

                IN - OUT =           0.0000                  IN - OUT =           0.0000

     PERCENT DISCREPANCY =           0.00         PERCENT DISCREPANCY =           0.00



1
  VOLUMETRIC BUDGET FOR ENTIRE MODEL AT END OF TIME STEP   30, STRESS PERIOD  24
  ------------------------------------------------------------------------------

     CUMULATIVE VOLUMES      L**3       RATES FOR THIS TIME STEP      L**3/T
     ------------------                 ------------------------

           IN:                                      IN:
           ---                                      ---
             STORAGE     =  1195709824.0000               STORAGE     =           9.1129
       CONSTANT HEAD     =           0.0000         CONSTANT HEAD     =           0.0000
     HEAD DEP BOUNDS     =    17292640.0000       HEAD DEP BOUNDS     =           0.2858
      STREAM LEAKAGE     =   754536960.0000        STREAM LEAKAGE     =          11.7257
        UZF RECHARGE     =   144042624.0000          UZF RECHARGE     =       3.0772E-04
               GW ET     =           0.0000                 GW ET     =           0.0000
     SURFACE LEAKAGE     =           0.0000       SURFACE LEAKAGE     =           0.0000
           AG WELLS      =           0.0000             AG WELLS      =           0.0000

                TOTAL IN =  2111582080.0000                  TOTAL IN =          21.1247

          OUT:                                     OUT:
          ----                                     ----
             STORAGE     =   497003584.0000               STORAGE     =          10.4630
       CONSTANT HEAD     =           0.0000         CONSTANT HEAD     =           0.0000
     HEAD DEP BOUNDS     =    17823690.0000       HEAD DEP BOUNDS     =           0.2899
      STREAM LEAKAGE     =   627544576.0000        STREAM LEAKAGE     =          10.3718
        UZF RECHARGE     =           0.0000          UZF RECHARGE     =           0.0000
               GW ET     =    17517140.0000                 GW ET     =           0.0000
     SURFACE LEAKAGE     =           0.0000       SURFACE LEAKAGE     =           0.0000
           AG WELLS      =   951688192.0000             AG WELLS      =           0.0000

               TOTAL OUT =  2111577216.0000                 TOTAL OUT =          21.1246

                IN - OUT =        4864.0000                  IN - OUT =       9.5367E-06

     PERCENT DISCREPANCY =           0.00         PERCENT DISCREPANCY =           0.00






         TIME SUMMARY AT END OF TIME STEP   30 IN STRESS PERIOD   24
                    SECONDS     MINUTES      HOURS       DAYS        YEARS
                    -----------------------------------------------------------
   TIME STEP LENGTH  87667.      1461.1      24.352      1.0147     2.77799E-03
 STRESS PERIOD TIME 2.63000E+06  43833.      730.56      30.440     8.33397E-02
         TOTAL TIME 6.05767E+07 1.00961E+06  16827.      701.12      1.9196    
1
1
                            STRESS PERIOD NO.   25, LENGTH =   2630000.    
                            -----------------------------------------------

                              NUMBER OF TIME STEPS =    30

                               MULTIPLIER FOR DELT =     1.000

                            INITIAL TIME STEP SIZE =   87666.66    

 REUSING NON-PARAMETER GHB CELLS FROM LAST STRESS PERIOD

      2 GHB CELLS

 REUSING STREAM SEGMENT DATA FROM LAST STRESS PERIOD



            AREAL INFILTRATION RATE
 READING ON UNIT   19 WITH FORMAT: (FREE)              

            1           2           3           4           5           6           7           8           9          10
 ........................................................................................................................
   1   1.0000E-10  2.0000E-10   0.000       0.000       0.000       0.000       0.000       0.000       0.000       0.000    
   2   2.0000E-10  1.0000E-10  2.0000E-10   0.000       0.000      8.0000E-10  8.0000E-10  5.0000E-10   0.000       0.000    
   3    0.000      5.0000E-10  1.0000E-10  1.0000E-10  8.0000E-10  8.0000E-10  5.0000E-10  5.0000E-10   0.000       0.000    
   4   8.0000E-10  5.0000E-10  1.0000E-10  1.0000E-10  1.0000E-10  1.0000E-10  1.0000E-10  1.0000E-10  2.0000E-10   0.000    
   5   8.0000E-10  5.0000E-10  1.0000E-10  1.0000E-10  1.0000E-10  1.0000E-10  1.0000E-10  1.0000E-10  1.0000E-10  1.0000E-10
   6   8.0000E-10  5.0000E-10  5.0000E-10  2.0000E-10  2.0000E-10  1.0000E-10  1.0000E-10  1.0000E-10  1.0000E-10  5.0000E-10
   7   8.0000E-10  5.0000E-10  5.0000E-10  2.0000E-10  2.0000E-10  1.0000E-10  1.0000E-10  2.0000E-10  2.0000E-10   0.000    
   8    0.000      5.0000E-10  5.0000E-10  2.0000E-10  2.0000E-10  1.0000E-10  1.0000E-10  2.0000E-10  5.0000E-10   0.000    
   9    0.000      5.0000E-10  5.0000E-10  2.0000E-10  2.0000E-10  1.0000E-10  1.0000E-10  2.0000E-10  5.0000E-10   0.000    
  10    0.000      5.0000E-10  5.0000E-10  2.0000E-10  2.0000E-10  1.0000E-10  1.0000E-10  2.0000E-10  5.0000E-10  8.0000E-10
  11    0.000      1.0000E-10  1.0000E-10  1.0000E-10  1.0000E-10  1.0000E-10  1.0000E-10  2.0000E-10  5.0000E-10   0.000    
  12   1.0000E-10  1.0000E-10  1.0000E-10  1.0000E-10  1.0000E-10  1.0000E-10  1.0000E-10  1.0000E-10  2.0000E-10   0.000    
  13   1.0000E-10  1.0000E-10  2.0000E-10  2.0000E-10  2.0000E-10  2.0000E-10  2.0000E-10  1.0000E-10  1.0000E-10   0.000    
  14    0.000      2.0000E-10  5.0000E-10  5.0000E-10  5.0000E-10  5.0000E-10  5.0000E-10  2.0000E-10  1.0000E-10   0.000    
  15    0.000       0.000      8.0000E-10  8.0000E-10  8.0000E-10  8.0000E-10   0.000       0.000       0.000       0.000    

                  ET RATE =  5.000000E-10

 USING ET EXTINCTION DEPTH FROM PREVIOUS STRESS PERIOD. CURRENT PERIOD IS:      25

 USING EXTINCTION WATER CONTENT FROM PREVIOUS STRESS PERIOD. CURRENT PERIOD IS:      25

 USING AIR ENTRY PRESSURE FROM PREVIOUS STRESS PERIOD. CURRENT PERIOD IS:      25

 USING ROOT PRESSURE HEAD FROM PREVIOUS STRESS PERIOD. CURRENT PERIOD IS:      25

 USING ROOT ACTIVITY FROM PREVIOUS STRESS PERIOD. CURRENT PERIOD IS:      25

 PROCESSING AG STRESS PERIOD DATA

 READING AG STRESS PERIOD DATA

 READING IRRIGATION WELL

 END PROCESSING AG STRESS PERIOD DATA OPTIONS
 
 SOLVING FOR HEAD 
                                                   Max.-Head-Change                         Max.-Flux-Residual
  Residual-Control   Outer-Iter.   Inner-Iter.     Column Row Layer    Maximum-Head-Change  Column Row Layer    Maximum-Flux-Residual          L2-NORM 
          0                 1           2             4    7     1       0.2436654332E-01       4    7    1         0.1279100496E+01      0.3133055760E+01
          0                 2           2             4    7     1      -0.2368927518E-02       4    7    1        -0.1278413640E+00      0.3131883111E+00
          0                 3           2             4    7     1       0.1611935839E-03       4    7    1         0.8942137261E-02      0.2191176603E-01
          0                 4           1             4    7     1      -0.6406002240E-05       4    7    1        -0.3652743435E-03      0.8954380448E-03

    ------------------------------------------------
       NWT REQUIRED            4 OUTER ITERATIONS 
       AND A TOTAL OF          7 INNER ITERATIONS.
    ------------------------------------------------

 NO OUTPUT CONTROL FOR STRESS PERIOD   25   TIME STEP    1
 
 SOLVING FOR HEAD 
                                                   Max.-Head-Change                         Max.-Flux-Residual
  Residual-Control   Outer-Iter.   Inner-Iter.     Column Row Layer    Maximum-Head-Change  Column Row Layer    Maximum-Flux-Residual          L2-NORM 
          0                 1           2             4    7     1       0.2411947119E-01       4    7    1         0.1266043577E+01      0.3106306972E+01
          0                 2           2             4    7     1      -0.2344906842E-02       4    7    1        -0.1265363589E+00      0.3105134538E+00
          0                 3           2             4    7     1       0.1595590942E-03       4    7    1         0.8850855524E-02      0.2172454704E-01
          0                 4           1             4    7     1      -0.6341045636E-05       4    7    1        -0.3615455889E-03      0.8877750154E-03

    ------------------------------------------------
       NWT REQUIRED            4 OUTER ITERATIONS 
       AND A TOTAL OF          7 INNER ITERATIONS.
    ------------------------------------------------

 NO OUTPUT CONTROL FOR STRESS PERIOD   25   TIME STEP    2
 
 SOLVING FOR HEAD 
                                                   Max.-Head-Change                         Max.-Flux-Residual
  Residual-Control   Outer-Iter.   Inner-Iter.     Column Row Layer    Maximum-Head-Change  Column Row Layer    Maximum-Flux-Residual          L2-NORM 
          0                 1           2             4    7     1       0.2387644532E-01       4    7    1         0.1253203946E+01      0.3079296909E+01
          0                 2           2             4    7     1      -0.2321279555E-02       4    7    1        -0.1252530714E+00      0.3078139648E+00
          0                 3           2             4    7     1       0.1579513724E-03       4    7    1         0.8761092895E-02      0.2153573336E-01
          0                 4           1             4    7     1      -0.6277152350E-05       4    7    1        -0.3578788624E-03      0.8800457939E-03

    ------------------------------------------------
       NWT REQUIRED            4 OUTER ITERATIONS 
       AND A TOTAL OF          7 INNER ITERATIONS.
    ------------------------------------------------

 NO OUTPUT CONTROL FOR STRESS PERIOD   25   TIME STEP    3
 
 SOLVING FOR HEAD 
                                                   Max.-Head-Change                         Max.-Flux-Residual
  Residual-Control   Outer-Iter.   Inner-Iter.     Column Row Layer    Maximum-Head-Change  Column Row Layer    Maximum-Flux-Residual          L2-NORM 
          0                 1           2             4    7     1       0.2363746116E-01       4    7    1         0.1240581425E+01      0.3052677596E+01
          0                 2           2             4    7     1      -0.2298045216E-02       4    7    1        -0.1239914841E+00      0.3051534548E+00
          0                 3           2             4    7     1       0.1563703893E-03       4    7    1         0.8672848148E-02      0.2134965095E-01
          0                 4           1             4    7     1      -0.6214322268E-05       4    7    1        -0.3542741511E-03      0.8724209109E-03

    ------------------------------------------------
       NWT REQUIRED            4 OUTER ITERATIONS 
       AND A TOTAL OF          7 INNER ITERATIONS.
    ------------------------------------------------

 NO OUTPUT CONTROL FOR STRESS PERIOD   25   TIME STEP    4
 
 SOLVING FOR HEAD 
                                                   Max.-Head-Change                         Max.-Flux-Residual
  Residual-Control   Outer-Iter.   Inner-Iter.     Column Row Layer    Maximum-Head-Change  Column Row Layer    Maximum-Flux-Residual          L2-NORM 
          0                 1           2             4    7     1       0.2340225153E-01       4    7    1         0.1228161139E+01      0.3026434129E+01
          0                 2           2             4    7     1      -0.2275177847E-02       4    7    1        -0.1227501101E+00      0.3025304667E+00
          0                 3           2             4    7     1       0.1548143769E-03       4    7    1         0.8586017280E-02      0.2116614725E-01
          0                 4           1             4    7     1      -0.6152484471E-05       4    7    1        -0.3507271972E-03      0.8649557913E-03

    ------------------------------------------------
       NWT REQUIRED            4 OUTER ITERATIONS 
       AND A TOTAL OF          7 INNER ITERATIONS.
    ------------------------------------------------

 NO OUTPUT CONTROL FOR STRESS PERIOD   25   TIME STEP    5
 
 SOLVING FOR HEAD 
                                                   Max.-Head-Change                         Max.-Flux-Residual
  Residual-Control   Outer-Iter.   Inner-Iter.     Column Row Layer    Maximum-Head-Change  Column Row Layer    Maximum-Flux-Residual          L2-NORM 
          0                 1           2             4    7     1       0.2317082852E-01       4    7    1         0.1215943876E+01      0.3000568966E+01
          0                 2           2             4    7     1      -0.2252678624E-02       4    7    1        -0.1215290280E+00      0.2999452307E+00
          0                 3           2             4    7     1       0.1532834156E-03       4    7    1         0.8500605804E-02      0.2098529210E-01
          0                 4           1             4    7     1      -0.6091642297E-05       4    7    1        -0.3472382398E-03      0.8576542080E-03

    ------------------------------------------------
       NWT REQUIRED            4 OUTER ITERATIONS 
       AND A TOTAL OF          7 INNER ITERATIONS.
    ------------------------------------------------

 NO OUTPUT CONTROL FOR STRESS PERIOD   25   TIME STEP    6
 
 SOLVING FOR HEAD 
                                                   Max.-Head-Change                         Max.-Flux-Residual
  Residual-Control   Outer-Iter.   Inner-Iter.     Column Row Layer    Maximum-Head-Change  Column Row Layer    Maximum-Flux-Residual          L2-NORM 
          0                 1           2             4    7     1       0.2294293363E-01       4    7    1         0.1203915622E+01      0.2975053396E+01
          0                 2           2             4    7     1      -0.2230522414E-02       4    7    1        -0.1203268371E+00      0.2973950332E+00
          0                 3           2             4    7     1       0.1517757944E-03       4    7    1         0.8416515710E-02      0.2080688968E-01
          0                 4           1             4    7     1      -0.6031727592E-05       4    7    1        -0.3438032481E-03      0.8502685327E-03

    ------------------------------------------------
       NWT REQUIRED            4 OUTER ITERATIONS 
       AND A TOTAL OF          7 INNER ITERATIONS.
    ------------------------------------------------

 NO OUTPUT CONTROL FOR STRESS PERIOD   25   TIME STEP    7
 
 SOLVING FOR HEAD 
                                                   Max.-Head-Change                         Max.-Flux-Residual
  Residual-Control   Outer-Iter.   Inner-Iter.     Column Row Layer    Maximum-Head-Change  Column Row Layer    Maximum-Flux-Residual          L2-NORM 
          0                 1           2             4    7     1       0.2271859698E-01       4    7    1         0.1192077614E+01      0.2949897165E+01
          0                 2           2             4    7     1      -0.2208712145E-02       4    7    1        -0.1191436612E+00      0.2948806875E+00
          0                 3           2             4    7     1       0.1502917132E-03       4    7    1         0.8333755703E-02      0.2063104180E-01
          0                 4           1             4    7     1      -0.5972748298E-05       4    7    1        -0.3404225902E-03      0.8431014893E-03

    ------------------------------------------------
       NWT REQUIRED            4 OUTER ITERATIONS 
       AND A TOTAL OF          7 INNER ITERATIONS.
    ------------------------------------------------

 NO OUTPUT CONTROL FOR STRESS PERIOD   25   TIME STEP    8
 
 SOLVING FOR HEAD 
                                                   Max.-Head-Change                         Max.-Flux-Residual
  Residual-Control   Outer-Iter.   Inner-Iter.     Column Row Layer    Maximum-Head-Change  Column Row Layer    Maximum-Flux-Residual          L2-NORM 
          0                 1           2             4    7     1       0.2249757484E-01       4    7    1         0.1180416773E+01      0.2925091177E+01
          0                 2           2             4    7     1      -0.2187224121E-02       4    7    1        -0.1179781929E+00      0.2924012961E+00
          0                 3           2             4    7     1       0.1488295592E-03       4    7    1         0.8252234297E-02      0.2045760174E-01
          0                 4           1             4    7     1      -0.5914640520E-05       4    7    1        -0.3370925240E-03      0.8360064992E-03

    ------------------------------------------------
       NWT REQUIRED            4 OUTER ITERATIONS 
       AND A TOTAL OF          7 INNER ITERATIONS.
    ------------------------------------------------

 NO OUTPUT CONTROL FOR STRESS PERIOD   25   TIME STEP    9
 
 SOLVING FOR HEAD 
                                                   Max.-Head-Change                         Max.-Flux-Residual
  Residual-Control   Outer-Iter.   Inner-Iter.     Column Row Layer    Maximum-Head-Change  Column Row Layer    Maximum-Flux-Residual          L2-NORM 
          0                 1           2             4    7     1       0.2227990522E-01       4    7    1         0.1168935104E+01      0.2900614104E+01
          0                 2           2             4    7     1      -0.2166062038E-02       4    7    1        -0.1168306327E+00      0.2899548198E+00
          0                 3           2             4    7     1       0.1473895839E-03       4    7    1         0.8171965515E-02      0.2028645504E-01
          0                 4           1             4    7     1      -0.5857414043E-05       4    7    1        -0.3338136244E-03      0.8289964289E-03

    ------------------------------------------------
       NWT REQUIRED            4 OUTER ITERATIONS 
       AND A TOTAL OF          7 INNER ITERATIONS.
    ------------------------------------------------

 NO OUTPUT CONTROL FOR STRESS PERIOD   25   TIME STEP   10
 
 SOLVING FOR HEAD 
                                                   Max.-Head-Change                         Max.-Flux-Residual
  Residual-Control   Outer-Iter.   Inner-Iter.     Column Row Layer    Maximum-Head-Change  Column Row Layer    Maximum-Flux-Residual          L2-NORM 
          0                 1           2             4    7     1       0.2206549057E-01       4    7    1         0.1157627258E+01      0.2876477012E+01
          0                 2           2             4    7     1      -0.2145216411E-02       4    7    1        -0.1157004459E+00      0.2875422496E+00
          0                 3           2             4    7     1       0.1459711422E-03       4    7    1         0.8092911975E-02      0.2011768790E-01
          0                 4           1             4    7     1      -0.5801043426E-05       4    7    1        -0.3305843670E-03      0.8221197718E-03

    ------------------------------------------------
       NWT REQUIRED            4 OUTER ITERATIONS 
       AND A TOTAL OF          7 INNER ITERATIONS.
    ------------------------------------------------

 NO OUTPUT CONTROL FOR STRESS PERIOD   25   TIME STEP   11
 
 SOLVING FOR HEAD 
                                                   Max.-Head-Change                         Max.-Flux-Residual
  Residual-Control   Outer-Iter.   Inner-Iter.     Column Row Layer    Maximum-Head-Change  Column Row Layer    Maximum-Flux-Residual          L2-NORM 
          0                 1           2             4    7     1       0.2185423822E-01       4    7    1         0.1146488175E+01      0.2852664329E+01
          0                 2           2             4    7     1      -0.2124678229E-02       4    7    1        -0.1145871268E+00      0.2851621397E+00
          0                 3           2             4    7     1       0.1445736206E-03       4    7    1         0.8015038280E-02      0.1995120959E-01
          0                 4           1             4    7     1      -0.5745504144E-05       4    7    1        -0.3274033161E-03      0.8152886257E-03

    ------------------------------------------------
       NWT REQUIRED            4 OUTER ITERATIONS 
       AND A TOTAL OF          7 INNER ITERATIONS.
    ------------------------------------------------

 NO OUTPUT CONTROL FOR STRESS PERIOD   25   TIME STEP   12
 
 SOLVING FOR HEAD 
                                                   Max.-Head-Change                         Max.-Flux-Residual
  Residual-Control   Outer-Iter.   Inner-Iter.     Column Row Layer    Maximum-Head-Change  Column Row Layer    Maximum-Flux-Residual          L2-NORM 
          0                 1           2             4    7     1       0.2164592698E-01       4    7    1         0.1135505729E+01      0.2829166772E+01
          0                 2           2             4    7     1      -0.2104425990E-02       4    7    1        -0.1134894632E+00      0.2828134981E+00
          0                 3           2             4    7     1       0.1431955560E-03       4    7    1         0.7938259662E-02      0.1978689655E-01
          0                 4           1             4    7     1      -0.5690738290E-05       4    7    1        -0.3242669914E-03      0.8086108406E-03

    ------------------------------------------------
       NWT REQUIRED            4 OUTER ITERATIONS 
       AND A TOTAL OF          7 INNER ITERATIONS.
    ------------------------------------------------

 NO OUTPUT CONTROL FOR STRESS PERIOD   25   TIME STEP   13
 
 SOLVING FOR HEAD 
                                                   Max.-Head-Change                         Max.-Flux-Residual
  Residual-Control   Outer-Iter.   Inner-Iter.     Column Row Layer    Maximum-Head-Change  Column Row Layer    Maximum-Flux-Residual          L2-NORM 
          0                 1           2             4    7     1       0.2144074716E-01       4    7    1         0.1124690420E+01      0.2805989236E+01
          0                 2           2             4    7     1      -0.2084478194E-02       4    7    1        -0.1124085049E+00      0.2804969950E+00
          0                 3           2             4    7     1       0.1418382080E-03       4    7    1         0.7862649553E-02      0.1962484839E-01
          0                 4           1             4    7     1      -0.5636795944E-05       4    7    1        -0.3211784096E-03      0.8019956344E-03

    ------------------------------------------------
       NWT REQUIRED            4 OUTER ITERATIONS 
       AND A TOTAL OF          7 INNER ITERATIONS.
    ------------------------------------------------

 NO OUTPUT CONTROL FOR STRESS PERIOD   25   TIME STEP   14
 
 SOLVING FOR HEAD 
                                                   Max.-Head-Change                         Max.-Flux-Residual
  Residual-Control   Outer-Iter.   Inner-Iter.     Column Row Layer    Maximum-Head-Change  Column Row Layer    Maximum-Flux-Residual          L2-NORM 
          0                 1           2             4    7     1       0.2123834716E-01       4    7    1         0.1114022823E+01      0.2783111919E+01
          0                 2           2             4    7     1      -0.2064800659E-02       4    7    1        -0.1113423100E+00      0.2782101838E+00
          0                 3           2             4    7     1       0.1404992498E-03       4    7    1         0.7788072110E-02      0.1946488673E-01
          0                 4           1             4    7     1      -0.5583584312E-05       4    7    1        -0.3181320144E-03      0.7954464223E-03

    ------------------------------------------------
       NWT REQUIRED            4 OUTER ITERATIONS 
       AND A TOTAL OF          7 INNER ITERATIONS.
    ------------------------------------------------

 NO OUTPUT CONTROL FOR STRESS PERIOD   25   TIME STEP   15
 
 SOLVING FOR HEAD 
                                                   Max.-Head-Change                         Max.-Flux-Residual
  Residual-Control   Outer-Iter.   Inner-Iter.     Column Row Layer    Maximum-Head-Change  Column Row Layer    Maximum-Flux-Residual          L2-NORM 
          0                 1           2             4    7     1       0.2103879095E-01       4    7    1         0.1103506677E+01      0.2760536898E+01
          0                 2           2             4    7     1      -0.2045399603E-02       4    7    1        -0.1102912525E+00      0.2759537171E+00
          0                 3           2             4    7     1       0.1391791040E-03       4    7    1         0.7714553463E-02      0.1930702423E-01
          0                 4           1             4    7     1      -0.5531120089E-05       4    7    1        -0.3151288613E-03      0.7890010208E-03

    ------------------------------------------------
       NWT REQUIRED            4 OUTER ITERATIONS 
       AND A TOTAL OF          7 INNER ITERATIONS.
    ------------------------------------------------

 NO OUTPUT CONTROL FOR STRESS PERIOD   25   TIME STEP   16
 
 SOLVING FOR HEAD 
                                                   Max.-Head-Change                         Max.-Flux-Residual
  Residual-Control   Outer-Iter.   Inner-Iter.     Column Row Layer    Maximum-Head-Change  Column Row Layer    Maximum-Flux-Residual          L2-NORM 
          0                 1           2             4    7     1       0.2084213965E-01       4    7    1         0.1093145301E+01      0.2738253937E+01
          0                 2           2             4    7     1      -0.2026280968E-02       4    7    1        -0.1092556641E+00      0.2737264516E+00
          0                 3           2             4    7     1       0.1378781761E-03       4    7    1         0.7642116861E-02      0.1915121764E-01
          0                 4           1             4    7     1      -0.5479419853E-05       4    7    1        -0.3121699117E-03      0.7826198246E-03

    ------------------------------------------------
       NWT REQUIRED            4 OUTER ITERATIONS 
       AND A TOTAL OF          7 INNER ITERATIONS.
    ------------------------------------------------

 NO OUTPUT CONTROL FOR STRESS PERIOD   25   TIME STEP   17
 
 SOLVING FOR HEAD 
                                                   Max.-Head-Change                         Max.-Flux-Residual
  Residual-Control   Outer-Iter.   Inner-Iter.     Column Row Layer    Maximum-Head-Change  Column Row Layer    Maximum-Flux-Residual          L2-NORM 
          0                 1           2             4    7     1       0.2064805290E-01       4    7    1         0.1082919890E+01      0.2716272151E+01
          0                 2           2             4    7     1      -0.2007411665E-02       4    7    1        -0.1082336650E+00      0.2715292887E+00
          0                 3           2             4    7     1       0.1365942140E-03       4    7    1         0.7570630814E-02      0.1899805825E-01
          0                 4           1             4    7     1      -0.5428393573E-05       4    7    1        -0.3092497743E-03      0.7771512677E-03

    ------------------------------------------------
       NWT REQUIRED            4 OUTER ITERATIONS 
       AND A TOTAL OF          7 INNER ITERATIONS.
    ------------------------------------------------

 NO OUTPUT CONTROL FOR STRESS PERIOD   25   TIME STEP   18
 
 SOLVING FOR HEAD 
                                                   Max.-Head-Change                         Max.-Flux-Residual
  Residual-Control   Outer-Iter.   Inner-Iter.     Column Row Layer    Maximum-Head-Change  Column Row Layer    Maximum-Flux-Residual          L2-NORM 
          0                 1           2             4    7     1       0.2045673823E-01       4    7    1         0.1072842096E+01      0.2694569026E+01
          0                 2           2             4    7     1      -0.1988811924E-02       4    7    1        -0.1072264201E+00      0.2693688112E+00
          0                 3           2             4    7     1       0.1353285947E-03       4    7    1         0.7500176794E-02      0.1884636788E-01
          0                 4           1             4    7     1      -0.5378096167E-05       4    7    1        -0.3063718120E-03      0.7701698482E-03

    ------------------------------------------------
       NWT REQUIRED            4 OUTER ITERATIONS 
       AND A TOTAL OF          7 INNER ITERATIONS.
    ------------------------------------------------

 NO OUTPUT CONTROL FOR STRESS PERIOD   25   TIME STEP   19
 
 SOLVING FOR HEAD 
                                                   Max.-Head-Change                         Max.-Flux-Residual
  Residual-Control   Outer-Iter.   Inner-Iter.     Column Row Layer    Maximum-Head-Change  Column Row Layer    Maximum-Flux-Residual          L2-NORM 
          0                 1           2             4    7     1       0.2026785969E-01       4    7    1         0.1062893375E+01      0.2673141420E+01
          0                 2           2             4    7     1      -0.1970448917E-02       4    7    1        -0.1062320758E+00      0.2672182014E+00
          0                 3           2             4    7     1       0.1340790839E-03       4    7    1         0.7430625115E-02      0.1869593438E-01
          0                 4           1             4    7     1      -0.5328439676E-05       4    7    1        -0.3035307220E-03      0.7640296810E-03

    ------------------------------------------------
       NWT REQUIRED            4 OUTER ITERATIONS 
       AND A TOTAL OF          7 INNER ITERATIONS.
    ------------------------------------------------

 NO OUTPUT CONTROL FOR STRESS PERIOD   25   TIME STEP   20
 
 SOLVING FOR HEAD 
                                                   Max.-Head-Change                         Max.-Flux-Residual
  Residual-Control   Outer-Iter.   Inner-Iter.     Column Row Layer    Maximum-Head-Change  Column Row Layer    Maximum-Flux-Residual          L2-NORM 
          0                 1           2             4    7     1       0.2008162981E-01       4    7    1         0.1053085619E+01      0.2651939544E+01
          0                 2           2             4    7     1      -0.1952343474E-02       4    7    1        -0.1052518208E+00      0.2650989666E+00
          0                 3           2             4    7     1       0.1328470990E-03       4    7    1         0.7362058962E-02      0.1854766820E-01
          0                 4           1             4    7     1      -0.5279479361E-05       4    7    1        -0.3007298824E-03      0.7579699373E-03

    ------------------------------------------------
       NWT REQUIRED            4 OUTER ITERATIONS 
       AND A TOTAL OF          7 INNER ITERATIONS.
    ------------------------------------------------

 NO OUTPUT CONTROL FOR STRESS PERIOD   25   TIME STEP   21
 
 SOLVING FOR HEAD 
                                                   Max.-Head-Change                         Max.-Flux-Residual
  Residual-Control   Outer-Iter.   Inner-Iter.     Column Row Layer    Maximum-Head-Change  Column Row Layer    Maximum-Flux-Residual          L2-NORM 
          0                 1           2             4    7     1       0.1989785241E-01       4    7    1         0.1043407863E+01      0.2631016283E+01
          0                 2           2             4    7     1      -0.1934476464E-02       4    7    1        -0.1042845589E+00      0.2630075722E+00
          0                 3           2             4    7     1       0.1316313379E-03       4    7    1         0.7294401642E-02      0.1840137450E-01
          0                 4           1             4    7     1      -0.5231163185E-05       4    7    1        -0.2979661349E-03      0.7519863598E-03

    ------------------------------------------------
       NWT REQUIRED            4 OUTER ITERATIONS 
       AND A TOTAL OF          7 INNER ITERATIONS.
    ------------------------------------------------

 NO OUTPUT CONTROL FOR STRESS PERIOD   25   TIME STEP   22
 
 SOLVING FOR HEAD 
                                                   Max.-Head-Change                         Max.-Flux-Residual
  Residual-Control   Outer-Iter.   Inner-Iter.     Column Row Layer    Maximum-Head-Change  Column Row Layer    Maximum-Flux-Residual          L2-NORM 
          0                 1           2             4    7     1       0.1971660662E-01       4    7    1         0.1033864591E+01      0.2610356548E+01
          0                 2           2             4    7     1      -0.1916855584E-02       4    7    1        -0.1033307384E+00      0.2609425291E+00
          0                 3           2             4    7     1       0.1304323249E-03       4    7    1         0.7227684503E-02      0.1825690904E-01
          0                 4           1             4    7     1      -0.5183513253E-05       4    7    1        -0.2952408192E-03      0.7460777261E-03

    ------------------------------------------------
       NWT REQUIRED            4 OUTER ITERATIONS 
       AND A TOTAL OF          7 INNER ITERATIONS.
    ------------------------------------------------

 NO OUTPUT CONTROL FOR STRESS PERIOD   25   TIME STEP   23
 
 SOLVING FOR HEAD 
                                                   Max.-Head-Change                         Max.-Flux-Residual
  Residual-Control   Outer-Iter.   Inner-Iter.     Column Row Layer    Maximum-Head-Change  Column Row Layer    Maximum-Flux-Residual          L2-NORM 
          0                 1           2             4    7     1       0.1953769841E-01       4    7    1         0.1024445251E+01      0.2589955873E+01
          0                 2           2             4    7     1      -0.1899461967E-02       4    7    1        -0.1023893048E+00      0.2589033716E+00
          0                 3           2             4    7     1       0.1292487764E-03       4    7    1         0.7161833811E-02      0.1811426130E-01
          0                 4           1             4    7     1      -0.5136477757E-05       4    7    1        -0.2925509054E-03      0.7402616861E-03

    ------------------------------------------------
       NWT REQUIRED            4 OUTER ITERATIONS 
       AND A TOTAL OF          7 INNER ITERATIONS.
    ------------------------------------------------

 NO OUTPUT CONTROL FOR STRESS PERIOD   25   TIME STEP   24
 
 SOLVING FOR HEAD 
                                                   Max.-Head-Change                         Max.-Flux-Residual
  Residual-Control   Outer-Iter.   Inner-Iter.     Column Row Layer    Maximum-Head-Change  Column Row Layer    Maximum-Flux-Residual          L2-NORM 
          0                 1           2             4    7     1       0.1936107635E-01       4    7    1         0.1015147109E+01      0.2569814309E+01
          0                 2           2             4    7     1      -0.1882290614E-02       4    7    1        -0.1014599847E+00      0.2568898371E+00
          0                 3           2             4    7     1       0.1280803520E-03       4    7    1         0.7096830434E-02      0.1797338817E-01
          0                 4           1             4    7     1      -0.5090043111E-05       4    7    1        -0.2898955947E-03      0.7344930316E-03

    ------------------------------------------------
       NWT REQUIRED            4 OUTER ITERATIONS 
       AND A TOTAL OF          7 INNER ITERATIONS.
    ------------------------------------------------

 NO OUTPUT CONTROL FOR STRESS PERIOD   25   TIME STEP   25
 
 SOLVING FOR HEAD 
                                                   Max.-Head-Change                         Max.-Flux-Residual
  Residual-Control   Outer-Iter.   Inner-Iter.     Column Row Layer    Maximum-Head-Change  Column Row Layer    Maximum-Flux-Residual          L2-NORM 
          0                 1           2             4    7     1       0.1918669329E-01       4    7    1         0.1005967501E+01      0.2549925817E+01
          0                 2           2             4    7     1      -0.1865371474E-02       4    7    1        -0.1005425118E+00      0.2549472102E+00
          0                 3           2             4    7     1       0.1269290882E-03       4    7    1         0.7032655641E-02      0.1783760762E-01
          0                 4           1             4    7     1      -0.5044290827E-05       4    7    1        -0.2872741265E-03      0.7291622446E-03

    ------------------------------------------------
       NWT REQUIRED            4 OUTER ITERATIONS 
       AND A TOTAL OF          7 INNER ITERATIONS.
    ------------------------------------------------

 NO OUTPUT CONTROL FOR STRESS PERIOD   25   TIME STEP   26
 
 SOLVING FOR HEAD 
                                                   Max.-Head-Change                         Max.-Flux-Residual
  Residual-Control   Outer-Iter.   Inner-Iter.     Column Row Layer    Maximum-Head-Change  Column Row Layer    Maximum-Flux-Residual          L2-NORM 
          0                 1           2             4    7     1       0.1901450047E-01       4    7    1         0.9969094664E+00      0.2530251632E+01
          0                 2           2             4    7     1      -0.1848596232E-02       4    7    1        -0.9963719049E-01      0.2529356148E+00
          0                 3           2             4    7     1       0.1257876190E-03       4    7    1         0.6969331026E-02      0.1769678704E-01
          0                 4           1             4    7     1      -0.4998927444E-05       4    7    1        -0.2846873977E-03      0.7231807919E-03

    ------------------------------------------------
       NWT REQUIRED            4 OUTER ITERATIONS 
       AND A TOTAL OF          7 INNER ITERATIONS.
    ------------------------------------------------

 NO OUTPUT CONTROL FOR STRESS PERIOD   25   TIME STEP   27
 
 SOLVING FOR HEAD 
                                                   Max.-Head-Change                         Max.-Flux-Residual
  Residual-Control   Outer-Iter.   Inner-Iter.     Column Row Layer    Maximum-Head-Change  Column Row Layer    Maximum-Flux-Residual          L2-NORM 
          0                 1           2             4    7     1       0.1884443106E-01       4    7    1         0.9879613447E+00      0.2510792248E+01
          0                 2           2             4    7     1      -0.1832061943E-02       4    7    1        -0.9874285447E-01      0.2509905725E+00
          0                 3           2             4    7     1       0.1246625437E-03       4    7    1         0.6906774713E-02      0.1756071852E-01
          0                 4           1             4    7     1      -0.4954216029E-05       4    7    1        -0.2821320493E-03      0.7176410090E-03

    ------------------------------------------------
       NWT REQUIRED            4 OUTER ITERATIONS 
       AND A TOTAL OF          7 INNER ITERATIONS.
    ------------------------------------------------

 NO OUTPUT CONTROL FOR STRESS PERIOD   25   TIME STEP   28
 
 SOLVING FOR HEAD 
                                                   Max.-Head-Change                         Max.-Flux-Residual
  Residual-Control   Outer-Iter.   Inner-Iter.     Column Row Layer    Maximum-Head-Change  Column Row Layer    Maximum-Flux-Residual          L2-NORM 
          0                 1           2             4    7     1       0.1867654488E-01       4    7    1         0.9791288059E+00      0.2491573627E+01
          0                 2           2             4    7     1      -0.1815739911E-02       4    7    1        -0.9786007075E-01      0.2490695472E+00
          0                 3           2             4    7     1       0.1235519112E-03       4    7    1         0.6845026431E-02      0.1742630961E-01
          0                 4           1             4    7     1      -0.4910078064E-05       4    7    1        -0.2796096981E-03      0.7121262656E-03

    ------------------------------------------------
       NWT REQUIRED            4 OUTER ITERATIONS 
       AND A TOTAL OF          7 INNER ITERATIONS.
    ------------------------------------------------

 NO OUTPUT CONTROL FOR STRESS PERIOD   25   TIME STEP   29
 
 SOLVING FOR HEAD 
                                                   Max.-Head-Change                         Max.-Flux-Residual
  Residual-Control   Outer-Iter.   Inner-Iter.     Column Row Layer    Maximum-Head-Change  Column Row Layer    Maximum-Flux-Residual          L2-NORM 
          0                 1           2             4    7     1       0.1851065450E-01       4    7    1         0.9704021356E+00      0.2476581159E+01
          0                 2           2             4    7     1      -0.1799611915E-02       4    7    1        -0.9698786838E-01      0.2475619589E+00
          0                 3           2             4    7     1       0.1224544824E-03       4    7    1         0.6784018312E-02      0.1732004054E-01
          0                 4           1             4    7     1      -0.4866464966E-05       4    7    1        -0.2771175966E-03      0.7077549232E-03

    ------------------------------------------------
       NWT REQUIRED            4 OUTER ITERATIONS 
       AND A TOTAL OF          7 INNER ITERATIONS.
    ------------------------------------------------

 NO OUTPUT CONTROL FOR STRESS PERIOD   25   TIME STEP   30



 STREAM LISTING     PERIOD     25   STEP       30

 LAYER ROW COL. STREAM  RCH.  FLOW INTO     FLOW TO   FLOW OUT OF   OVRLND.     DIRECT     STREAM       STREAM     STREAM     STREAM   STREAMBED  STREAMBED
                SEG.NO.  NO.  STRM. RCH.    AQUIFER    STRM. RCH.    RUNOFF     PRECIP       ET          HEAD       DEPTH      WIDTH   CONDCTNC.   GRADIENT

   1    1    1     1     1    1.8461E+01  2.1075E-01   1.8250E+01  0.000E+00  0.000E+00  0.000E+00  1.09412E+03  1.073E+00  1.150E+01  5.174E-02  1.358E+00
   1    2    2     1     2    1.8250E+01  3.2508E-01   1.7925E+01  0.000E+00  0.000E+00  0.000E+00  1.08913E+03  1.068E+00  1.141E+01  7.990E-02  1.356E+00
   1    3    3     1     3    1.7925E+01  2.7598E-01   1.7649E+01  0.000E+00  0.000E+00  0.000E+00  1.08348E+03  1.063E+00  1.132E+01  6.792E-02  1.354E+00
   1    3    4     1     4    1.7649E+01  2.5310E-01   1.7396E+01  0.000E+00  0.000E+00  0.000E+00  1.07847E+03  1.059E+00  1.124E+01  6.236E-02  1.353E+00
   1    4    5     2     1    1.5396E+01  3.0400E-01   1.5092E+01  0.000E+00  0.000E+00  0.000E+00  1.07283E+03  8.974E-01  1.200E+01  7.800E-02  1.299E+00
   1    5    6     2     2    1.5092E+01  2.3327E-01   1.4859E+01  0.000E+00  0.000E+00  0.000E+00  1.06740E+03  8.879E-01  1.200E+01  6.000E-02  1.296E+00
   1    6    6     2     3    1.4859E+01  2.3278E-01   1.4626E+01  0.000E+00  0.000E+00  0.000E+00  1.06267E+03  8.796E-01  1.200E+01  6.000E-02  1.293E+00
   1    7    6     2     4    1.4626E+01  2.3227E-01   1.4394E+01  0.000E+00  0.000E+00  0.000E+00  1.05795E+03  8.712E-01  1.200E+01  6.000E-02  1.290E+00
   1    8    6     2     5    1.4394E+01  2.3177E-01   1.4162E+01  0.000E+00  0.000E+00  0.000E+00  1.05322E+03  8.629E-01  1.200E+01  6.000E-02  1.288E+00
   1    3    5     3     1    2.0000E+00  2.8252E-01   1.7175E+00  0.000E+00  0.000E+00  0.000E+00  1.07555E+03  1.909E+00  9.636E+00  7.227E-02  1.955E+00
   1    3    6     3     2    1.7175E+00  2.4905E-01   1.4684E+00  0.000E+00  0.000E+00  0.000E+00  1.07264E+03  1.727E+00  8.909E+00  6.682E-02  1.864E+00
   1    3    7     3     3    1.4684E+00  1.9718E-01   1.2712E+00  0.000E+00  0.000E+00  0.000E+00  1.06987E+03  1.555E+00  8.218E+00  5.547E-02  1.777E+00
   1    4    8     3     4    1.2712E+00  2.2567E-01   1.0456E+00  0.000E+00  0.000E+00  0.000E+00  1.06682E+03  1.364E+00  7.455E+00  6.709E-02  1.682E+00
   1    5    8     3     5    1.0456E+00  1.5790E-01   8.8768E-01  0.000E+00  0.000E+00  0.000E+00  1.06362E+03  1.164E+00  6.655E+00  4.991E-02  1.582E+00
   1    6    8     3     6    8.8768E-01  5.5980E-02   8.3170E-01  0.000E+00  0.000E+00  0.000E+00  1.06158E+03  1.036E+00  6.145E+00  1.844E-02  1.518E+00
   1    5   10     4     1    1.0000E+01  9.0919E-02   9.9091E+00  0.000E+00  0.000E+00  0.000E+00  1.07836E+03  6.368E-01  1.000E+01  2.500E-02  1.212E+00
   1    5    9     4     2    9.9091E+00  1.8158E-01   9.7275E+00  0.000E+00  0.000E+00  0.000E+00  1.07154E+03  6.315E-01  1.000E+01  5.000E-02  1.211E+00
   1    6    8     4     3    9.7275E+00  1.2689E-01   9.6006E+00  0.000E+00  0.000E+00  0.000E+00  1.06381E+03  6.256E-01  1.000E+01  3.500E-02  1.209E+00
   1    6    8     5     1    1.0432E+01  2.2686E-01   1.0205E+01  0.000E+00  0.000E+00  0.000E+00  1.05868E+03  6.790E-01  1.542E+01  6.166E-02  1.226E+00
   1    7    7     5     2    1.0205E+01  2.7894E-01   9.9265E+00  0.000E+00  0.000E+00  0.000E+00  1.05417E+03  6.732E-01  1.519E+01  7.594E-02  1.224E+00
   1    8    7     5     3    9.9265E+00  1.9221E-01   9.7343E+00  0.000E+00  0.000E+00  0.000E+00  1.04992E+03  6.676E-01  1.497E+01  5.241E-02  1.223E+00
   1    8    6     5     4    9.7343E+00  1.3577E-01   9.5985E+00  0.000E+00  0.000E+00  0.000E+00  1.04691E+03  6.637E-01  1.482E+01  3.706E-02  1.221E+00
   1    9    6     6     1    2.3760E+01  2.5084E-01   2.3510E+01  0.000E+00  0.000E+00  0.000E+00  1.04391E+03  1.181E+00  1.200E+01  6.000E-02  1.394E+00
   1   10    7     6     2    2.3510E+01  2.5038E-01   2.3259E+01  0.000E+00  0.000E+00  0.000E+00  1.03935E+03  1.173E+00  1.200E+01  6.000E-02  1.391E+00
   1   11    7     6     3    2.3259E+01  2.4993E-01   2.3009E+01  0.000E+00  0.000E+00  0.000E+00  1.03480E+03  1.166E+00  1.200E+01  6.000E-02  1.389E+00
   1   12    7     6     4    2.3009E+01  2.4948E-01   2.2760E+01  0.000E+00  0.000E+00  0.000E+00  1.03025E+03  1.158E+00  1.200E+01  6.000E-02  1.386E+00
   1   13    7     6     5    2.2760E+01  2.6342E-03   2.2757E+01  0.000E+00  0.000E+00  0.000E+00  1.02706E+03  1.154E+00  1.200E+01  2.400E-02  3.659E-02
   1   14    9     7     1    1.5000E+02  1.3380E+00   1.4866E+02  0.000E+00  0.000E+00  0.000E+00  1.03987E+03  2.288E+00  5.529E+01  5.593E-01  7.974E-01
   1   13    8     7     2    1.4866E+02  1.8592E+00   1.4680E+02  0.000E+00  0.000E+00  0.000E+00  1.03478E+03  2.279E+00  5.526E+01  6.148E-01  1.008E+00
   1   13    7     7     3    1.4680E+02  1.5279E+00   1.4527E+02  0.000E+00  0.000E+00  0.000E+00  1.02969E+03  2.270E+00  5.522E+01  5.584E-01  9.120E-01
   1   13    6     8     1    1.6803E+02  9.7637E-01   1.6706E+02  0.000E+00  0.000E+00  0.000E+00  1.02481E+03  2.936E+00  4.257E+01  4.338E-01  7.502E-01
   1   13    5     8     2    1.6706E+02  2.3798E-01   1.6682E+02  0.000E+00  0.000E+00  0.000E+00  1.01856E+03  2.932E+00  4.252E+01  4.333E-01  1.831E-01
   1   13    4     8     3    1.6682E+02 -2.2214E+00   1.6904E+02  0.000E+00  0.000E+00  0.000E+00  1.01231E+03  2.939E+00  4.261E+01  4.342E+00 -1.705E-01
   1   13    3     8     4    1.6904E+02 -3.5734E+00   1.7261E+02  0.000E+00  0.000E+00  0.000E+00  1.00608E+03  2.958E+00  4.288E+01  4.370E+00 -2.726E-01
   1   13    2     8     5    1.7261E+02 -2.5907E+00   1.7520E+02  0.000E+00  0.000E+00  0.000E+00  9.99852E+02  2.977E+00  4.317E+01  4.400E+00 -1.963E-01
   1   13    1     8     6    1.7520E+02 -2.0005E+00   1.7720E+02  0.000E+00  0.000E+00  0.000E+00  9.94867E+02  2.992E+00  4.339E+01  2.653E+00 -2.514E-01





UNSATURATED ZONE PACKAGE VOLUMETRIC BUDGET FOR  TIME STEP    30 STRESS PERIOD   25
  ------------------------------------------------------------------------------



     CUMULATIVE VOLUMES      L**3       RATES FOR THIS TIME STEP      L**3/T
     ------------------                 ------------------------

           IN:                                      IN:
           ---                                      ---
        INFILTRATION =  1005257001.5757          INFILTRATION =           0.8475

          OUT:                                     OUT:
          ----                                     ----
              UZF ET =   860625257.0081                UZF ET =           0.7500
        UZF RECHARGE =   144043417.4025          UZF RECHARGE =           0.0002

            IN - OUT =      588327.1651              IN - OUT =       9.7264E-02

          STORAGE:                                 STORAGE:
          --------                                 --------
      STORAGE CHANGE =      588315.1491        STORAGE CHANGE =       9.7264E-02

 PERCENT DISCREPANCY IS DIFFERENCE BETWEEN IN-OUT MINUS CHANGE IN STORAGE
 DIVIDED BY THE AVERAGE OF IN AND OUT TIMES 100

 PERCENT DISCREPANCY =           0.00     PERCENT DISCREPANCY =           0.00






1
  VOLUMETRIC BUDGET FOR AGRICULTURAL FIELDS AT  END OF TIME STEP   30, STRESS PERIOD  25
  ------------------------------------------------------------------------------

     CUMULATIVE VOLUMES      L**3       RATES FOR THIS TIME STEP      L**3/T
     ------------------                 ------------------------

           IN:                                      IN:
           ---                                      ---
           AG WELLS      =   951688192.0000             AG WELLS      =           0.0000
      DIVERSION SEGMENTS =           0.0000        DIVERSION SEGMENTS =           0.0000
           GW IRRIGATION =           0.0000             GW IRRIGATION =           0.0000
           SW IRRIGATION =           0.0000             SW IRRIGATION =           0.0000
        SYSTEM LOSSES GW =           0.0000          SYSTEM LOSSES GW =           0.0000
        SYSTEM LOSSES SW =           0.0000          SYSTEM LOSSES SW =           0.0000

                TOTAL IN =   951688192.0000                  TOTAL IN =           0.0000

          OUT:                                     OUT:
          ----                                     ----
           AG WELLS      =           0.0000             AG WELLS      =           0.0000
      DIVERSION SEGMENTS =           0.0000        DIVERSION SEGMENTS =           0.0000
           GW IRRIGATION =   951688192.0000             GW IRRIGATION =           0.0000
           SW IRRIGATION =           0.0000             SW IRRIGATION =           0.0000
        SYSTEM LOSSES GW =           0.0000          SYSTEM LOSSES GW =           0.0000
        SYSTEM LOSSES SW =           0.0000          SYSTEM LOSSES SW =           0.0000

               TOTAL OUT =   951688192.0000                 TOTAL OUT =           0.0000

                IN - OUT =           0.0000                  IN - OUT =           0.0000

     PERCENT DISCREPANCY =           0.00         PERCENT DISCREPANCY =           0.00



1
  VOLUMETRIC BUDGET FOR ENTIRE MODEL AT END OF TIME STEP   30, STRESS PERIOD  25
  ------------------------------------------------------------------------------

     CUMULATIVE VOLUMES      L**3       RATES FOR THIS TIME STEP      L**3/T
     ------------------                 ------------------------

           IN:                                      IN:
           ---                                      ---
             STORAGE     =  1217089920.0000               STORAGE     =           7.4091
       CONSTANT HEAD     =           0.0000         CONSTANT HEAD     =           0.0000
     HEAD DEP BOUNDS     =    18044472.0000       HEAD DEP BOUNDS     =           0.2859
      STREAM LEAKAGE     =   785311040.0000        STREAM LEAKAGE     =          11.6433
        UZF RECHARGE     =   144043296.0000          UZF RECHARGE     =       2.3603E-04
               GW ET     =           0.0000                 GW ET     =           0.0000
     SURFACE LEAKAGE     =           0.0000       SURFACE LEAKAGE     =           0.0000
           AG WELLS      =           0.0000             AG WELLS      =           0.0000

                TOTAL IN =  2164488704.0000                  TOTAL IN =          19.3385

          OUT:                                     OUT:
          ----                                     ----
             STORAGE     =   521924384.0000               STORAGE     =           8.6629
       CONSTANT HEAD     =           0.0000         CONSTANT HEAD     =           0.0000
     HEAD DEP BOUNDS     =    18585644.0000       HEAD DEP BOUNDS     =           0.2896
      STREAM LEAKAGE     =   654768384.0000        STREAM LEAKAGE     =          10.3860
        UZF RECHARGE     =           0.0000          UZF RECHARGE     =           0.0000
               GW ET     =    17517140.0000                 GW ET     =           0.0000
     SURFACE LEAKAGE     =           0.0000       SURFACE LEAKAGE     =           0.0000
           AG WELLS      =   951688192.0000             AG WELLS      =           0.0000

               TOTAL OUT =  2164483584.0000                 TOTAL OUT =          19.3385

                IN - OUT =        5120.0000                  IN - OUT =       9.5367E-06

     PERCENT DISCREPANCY =           0.00         PERCENT DISCREPANCY =           0.00






         TIME SUMMARY AT END OF TIME STEP   30 IN STRESS PERIOD   25
                    SECONDS     MINUTES      HOURS       DAYS        YEARS
                    -----------------------------------------------------------
   TIME STEP LENGTH  87667.      1461.1      24.352      1.0147     2.77799E-03
 STRESS PERIOD TIME 2.63000E+06  43833.      730.56      30.440     8.33397E-02
         TOTAL TIME 6.32067E+07 1.05345E+06  17557.      731.56      2.0029    
1
1
                            STRESS PERIOD NO.   26, LENGTH =   2630000.    
                            -----------------------------------------------

                              NUMBER OF TIME STEPS =    30

                               MULTIPLIER FOR DELT =     1.000

                            INITIAL TIME STEP SIZE =   87666.66    

 REUSING NON-PARAMETER GHB CELLS FROM LAST STRESS PERIOD

      2 GHB CELLS

 REUSING STREAM SEGMENT DATA FROM LAST STRESS PERIOD



            AREAL INFILTRATION RATE
 READING ON UNIT   19 WITH FORMAT: (FREE)              

            1           2           3           4           5           6           7           8           9          10
 ........................................................................................................................
   1   1.0000E-10  2.0000E-10   0.000       0.000       0.000       0.000       0.000       0.000       0.000       0.000    
   2   2.0000E-10  1.0000E-10  2.0000E-10   0.000       0.000      8.0000E-10  8.0000E-10  5.0000E-10   0.000       0.000    
   3    0.000      5.0000E-10  1.0000E-10  1.0000E-10  8.0000E-10  8.0000E-10  5.0000E-10  5.0000E-10   0.000       0.000    
   4   8.0000E-10  5.0000E-10  1.0000E-10  1.0000E-10  1.0000E-10  1.0000E-10  1.0000E-10  1.0000E-10  2.0000E-10   0.000    
   5   8.0000E-10  5.0000E-10  1.0000E-10  1.0000E-10  1.0000E-10  1.0000E-10  1.0000E-10  1.0000E-10  1.0000E-10  1.0000E-10
   6   8.0000E-10  5.0000E-10  5.0000E-10  2.0000E-10  2.0000E-10  1.0000E-10  1.0000E-10  1.0000E-10  1.0000E-10  5.0000E-10
   7   8.0000E-10  5.0000E-10  5.0000E-10  2.0000E-10  2.0000E-10  1.0000E-10  1.0000E-10  2.0000E-10  2.0000E-10   0.000    
   8    0.000      5.0000E-10  5.0000E-10  2.0000E-10  2.0000E-10  1.0000E-10  1.0000E-10  2.0000E-10  5.0000E-10   0.000    
   9    0.000      5.0000E-10  5.0000E-10  2.0000E-10  2.0000E-10  1.0000E-10  1.0000E-10  2.0000E-10  5.0000E-10   0.000    
  10    0.000      5.0000E-10  5.0000E-10  2.0000E-10  2.0000E-10  1.0000E-10  1.0000E-10  2.0000E-10  5.0000E-10  8.0000E-10
  11    0.000      1.0000E-10  1.0000E-10  1.0000E-10  1.0000E-10  1.0000E-10  1.0000E-10  2.0000E-10  5.0000E-10   0.000    
  12   1.0000E-10  1.0000E-10  1.0000E-10  1.0000E-10  1.0000E-10  1.0000E-10  1.0000E-10  1.0000E-10  2.0000E-10   0.000    
  13   1.0000E-10  1.0000E-10  2.0000E-10  2.0000E-10  2.0000E-10  2.0000E-10  2.0000E-10  1.0000E-10  1.0000E-10   0.000    
  14    0.000      2.0000E-10  5.0000E-10  5.0000E-10  5.0000E-10  5.0000E-10  5.0000E-10  2.0000E-10  1.0000E-10   0.000    
  15    0.000       0.000      8.0000E-10  8.0000E-10  8.0000E-10  8.0000E-10   0.000       0.000       0.000       0.000    

                  ET RATE =  5.000000E-10

 USING ET EXTINCTION DEPTH FROM PREVIOUS STRESS PERIOD. CURRENT PERIOD IS:      26

 USING EXTINCTION WATER CONTENT FROM PREVIOUS STRESS PERIOD. CURRENT PERIOD IS:      26

 USING AIR ENTRY PRESSURE FROM PREVIOUS STRESS PERIOD. CURRENT PERIOD IS:      26

 USING ROOT PRESSURE HEAD FROM PREVIOUS STRESS PERIOD. CURRENT PERIOD IS:      26

 USING ROOT ACTIVITY FROM PREVIOUS STRESS PERIOD. CURRENT PERIOD IS:      26

 PROCESSING AG STRESS PERIOD DATA

 READING AG STRESS PERIOD DATA

 READING IRRIGATION WELL

 END PROCESSING AG STRESS PERIOD DATA OPTIONS
 
 SOLVING FOR HEAD 
                                                   Max.-Head-Change                         Max.-Flux-Residual
  Residual-Control   Outer-Iter.   Inner-Iter.     Column Row Layer    Maximum-Head-Change  Column Row Layer    Maximum-Flux-Residual          L2-NORM 
          0                 1           2             4    7     1       0.1834686826E-01       4    7    1         0.9617862719E+00      0.2456141883E+01
          0                 2           2             4    7     1      -0.1783688486E-02       4    7    1        -0.9612674081E-01      0.2455235972E+00
          0                 3           2             4    7     1       0.1213709732E-03       4    7    1         0.6723784855E-02      0.1717788260E-01
          0                 4           1             4    7     1      -0.4823405056E-05       4    7    1        -0.2746571274E-03      0.7019684571E-03

    ------------------------------------------------
       NWT REQUIRED            4 OUTER ITERATIONS 
       AND A TOTAL OF          7 INNER ITERATIONS.
    ------------------------------------------------

 NO OUTPUT CONTROL FOR STRESS PERIOD   26   TIME STEP    1
 
 SOLVING FOR HEAD 
                                                   Max.-Head-Change                         Max.-Flux-Residual
  Residual-Control   Outer-Iter.   Inner-Iter.     Column Row Layer    Maximum-Head-Change  Column Row Layer    Maximum-Flux-Residual          L2-NORM 
          0                 1           2             4    7     1       0.1818501354E-01       4    7    1         0.9532721753E+00      0.2437566200E+01
          0                 2           2             4    7     1      -0.1767952841E-02       4    7    1        -0.9527578458E-01      0.2436672809E+00
          0                 3           2             4    7     1       0.1203002417E-03       4    7    1         0.6664262828E-02      0.1704802262E-01
          0                 4           1             4    7     1      -0.4780853204E-05       4    7    1        -0.2722257352E-03      0.6966430686E-03

    ------------------------------------------------
       NWT REQUIRED            4 OUTER ITERATIONS 
       AND A TOTAL OF          7 INNER ITERATIONS.
    ------------------------------------------------

 NO OUTPUT CONTROL FOR STRESS PERIOD   26   TIME STEP    2
 
 SOLVING FOR HEAD 
                                                   Max.-Head-Change                         Max.-Flux-Residual
  Residual-Control   Outer-Iter.   Inner-Iter.     Column Row Layer    Maximum-Head-Change  Column Row Layer    Maximum-Flux-Residual          L2-NORM 
          0                 1           2             4    7     1       0.1802519613E-01       4    7    1         0.9448655536E+00      0.2419230597E+01
          0                 2           2             4    7     1      -0.1752415266E-02       4    7    1        -0.9443557025E-01      0.2418348865E+00
          0                 3           2             4    7     1       0.1192429875E-03       4    7    1         0.6605492154E-02      0.1691986756E-01
          0                 4           1             4    7     1      -0.4738836811E-05       4    7    1        -0.2698250171E-03      0.6914425879E-03

    ------------------------------------------------
       NWT REQUIRED            4 OUTER ITERATIONS 
       AND A TOTAL OF          7 INNER ITERATIONS.
    ------------------------------------------------

 NO OUTPUT CONTROL FOR STRESS PERIOD   26   TIME STEP    3
 
 SOLVING FOR HEAD 
                                                   Max.-Head-Change                         Max.-Flux-Residual
  Residual-Control   Outer-Iter.   Inner-Iter.     Column Row Layer    Maximum-Head-Change  Column Row Layer    Maximum-Flux-Residual          L2-NORM 
          0                 1           2             4    7     1       0.1786724273E-01       4    7    1         0.9365572328E+00      0.2401118482E+01
          0                 2           2             4    7     1      -0.1737058913E-02       4    7    1        -0.9360518083E-01      0.2400248092E+00
          0                 3           2             4    7     1       0.1181980652E-03       4    7    1         0.6547408732E-02      0.1679328393E-01
          0                 4           1             4    7     1      -0.4697310746E-05       4    7    1        -0.2674524044E-03      0.6862923569E-03

    ------------------------------------------------
       NWT REQUIRED            4 OUTER ITERATIONS 
       AND A TOTAL OF          7 INNER ITERATIONS.
    ------------------------------------------------

 NO OUTPUT CONTROL FOR STRESS PERIOD   26   TIME STEP    4
 
 SOLVING FOR HEAD 
                                                   Max.-Head-Change                         Max.-Flux-Residual
  Residual-Control   Outer-Iter.   Inner-Iter.     Column Row Layer    Maximum-Head-Change  Column Row Layer    Maximum-Flux-Residual          L2-NORM 
          0                 1           2             4    7     1       0.1771125957E-01       4    7    1         0.9283528873E+00      0.2383228109E+01
          0                 2           2             4    7     1      -0.1721894109E-02       4    7    1        -0.9278518346E-01      0.2382366809E+00
          0                 3           1             4    7     1       0.1171661799E-03       4    7    1         0.6490052213E-02      0.1666807641E-01
          0                 4           1             4    7     1      -0.4656305518E-05       4    7    1        -0.2651094560E-03      0.6811665026E-03

    ------------------------------------------------
       NWT REQUIRED            4 OUTER ITERATIONS 
       AND A TOTAL OF          6 INNER ITERATIONS.
    ------------------------------------------------

 NO OUTPUT CONTROL FOR STRESS PERIOD   26   TIME STEP    5
 
 SOLVING FOR HEAD 
                                                   Max.-Head-Change                         Max.-Flux-Residual
  Residual-Control   Outer-Iter.   Inner-Iter.     Column Row Layer    Maximum-Head-Change  Column Row Layer    Maximum-Flux-Residual          L2-NORM 
          0                 1           2             4    7     1       0.1755721431E-01       4    7    1         0.9202506957E+00      0.2365572525E+01
          0                 2           2             4    7     1      -0.1706917711E-02       4    7    1        -0.9197539613E-01      0.2364723537E+00
          0                 3           1             4    7     1       0.1161471112E-03       4    7    1         0.6433409848E-02      0.1654484441E-01
          0                 4           1             4    7     1      -0.4615806392E-05       4    7    1        -0.2627956774E-03      0.6761154893E-03

    ------------------------------------------------
       NWT REQUIRED            4 OUTER ITERATIONS 
       AND A TOTAL OF          6 INNER ITERATIONS.
    ------------------------------------------------

 NO OUTPUT CONTROL FOR STRESS PERIOD   26   TIME STEP    6
 
 SOLVING FOR HEAD 
                                                   Max.-Head-Change                         Max.-Flux-Residual
  Residual-Control   Outer-Iter.   Inner-Iter.     Column Row Layer    Maximum-Head-Change  Column Row Layer    Maximum-Flux-Residual          L2-NORM 
          0                 1           2             4    7     1       0.1740507017E-01       4    7    1         0.9122489805E+00      0.2348122773E+01
          0                 2           2             4    7     1      -0.1692126141E-02       4    7    1        -0.9117565118E-01      0.2347283608E+00
          0                 3           1             4    7     1       0.1151406196E-03       4    7    1         0.6377469932E-02      0.1642285702E-01
          0                 4           1             4    7     1      -0.4575807494E-05       4    7    1        -0.2605106101E-03      0.6711663331E-03

    ------------------------------------------------
       NWT REQUIRED            4 OUTER ITERATIONS 
       AND A TOTAL OF          6 INNER ITERATIONS.
    ------------------------------------------------

 NO OUTPUT CONTROL FOR STRESS PERIOD   26   TIME STEP    7
 
 SOLVING FOR HEAD 
                                                   Max.-Head-Change                         Max.-Flux-Residual
  Residual-Control   Outer-Iter.   Inner-Iter.     Column Row Layer    Maximum-Head-Change  Column Row Layer    Maximum-Flux-Residual          L2-NORM 
          0                 1           2             4    7     1       0.1725466029E-01       4    7    1         0.9043385040E+00      0.2330883527E+01
          0                 2           2             4    7     1      -0.1678929447E-02       4    7    1        -0.9048318273E-01      0.2330309026E+00
          0                 3           1             4    7     1       0.1142426968E-03       4    7    1         0.6329034570E-02      0.1630413470E-01
          0                 4           1             4    7     1      -0.4540126458E-05       4    7    1        -0.2585321599E-03      0.6662983407E-03

    ------------------------------------------------
       NWT REQUIRED            4 OUTER ITERATIONS 
       AND A TOTAL OF          6 INNER ITERATIONS.
    ------------------------------------------------

 NO OUTPUT CONTROL FOR STRESS PERIOD   26   TIME STEP    8
 
 SOLVING FOR HEAD 
                                                   Max.-Head-Change                         Max.-Flux-Residual
  Residual-Control   Outer-Iter.   Inner-Iter.     Column Row Layer    Maximum-Head-Change  Column Row Layer    Maximum-Flux-Residual          L2-NORM 
          0                 1           2             4    7     1       0.1710162027E-01       4    7    1         0.8964492558E+00      0.2313840115E+01
          0                 2           2             4    7     1      -0.1662625295E-02       4    7    1        -0.8959655035E-01      0.2313020433E+00
          0                 3           1             4    7     1       0.1131332778E-03       4    7    1         0.6267016880E-02      0.1618319638E-01
          0                 4           1             4    7     1      -0.4496036156E-05       4    7    1        -0.2559987759E-03      0.6613585756E-03

    ------------------------------------------------
       NWT REQUIRED            4 OUTER ITERATIONS 
       AND A TOTAL OF          6 INNER ITERATIONS.
    ------------------------------------------------

 NO OUTPUT CONTROL FOR STRESS PERIOD   26   TIME STEP    9
 
 SOLVING FOR HEAD 
                                                   Max.-Head-Change                         Max.-Flux-Residual
  Residual-Control   Outer-Iter.   Inner-Iter.     Column Row Layer    Maximum-Head-Change  Column Row Layer    Maximum-Flux-Residual          L2-NORM 
          0                 1           2             4    7     1       0.1695209714E-01       4    7    1         0.8885756385E+00      0.2296980449E+01
          0                 2           2             4    7     1      -0.1648088519E-02       4    7    1        -0.8880960690E-01      0.2296169635E+00
          0                 3           1             4    7     1       0.1121441225E-03       4    7    1         0.6211972334E-02      0.1606530633E-01
          0                 4           1             4    7     1      -0.4456726067E-05       4    7    1        -0.2537502735E-03      0.6566170782E-03

    ------------------------------------------------
       NWT REQUIRED            4 OUTER ITERATIONS 
       AND A TOTAL OF          6 INNER ITERATIONS.
    ------------------------------------------------

 NO OUTPUT CONTROL FOR STRESS PERIOD   26   TIME STEP   10
 
 SOLVING FOR HEAD 
                                                   Max.-Head-Change                         Max.-Flux-Residual
  Residual-Control   Outer-Iter.   Inner-Iter.     Column Row Layer    Maximum-Head-Change  Column Row Layer    Maximum-Flux-Residual          L2-NORM 
          0                 1           2             4    7     1       0.1680444331E-01       4    7    1         0.8808010543E+00      0.2280320211E+01
          0                 2           2             4    7     1      -0.1633733482E-02       4    7    1        -0.8803256166E-01      0.2279518557E+00
          0                 3           1             4    7     1       0.1111673337E-03       4    7    1         0.6157620148E-02      0.1594883381E-01
          0                 4           1             4    7     1      -0.4417907227E-05       4    7    1        -0.2515300509E-03      0.6517729186E-03

    ------------------------------------------------
       NWT REQUIRED            4 OUTER ITERATIONS 
       AND A TOTAL OF          6 INNER ITERATIONS.
    ------------------------------------------------

 NO OUTPUT CONTROL FOR STRESS PERIOD   26   TIME STEP   11


 Run end date and time (yyyy/mm/dd hh:mm:ss): 2021/09/08 17:38:08
 Elapsed run time: 2.674 Seconds

