                                  MODFLOW-NWT-SWR1 
      U.S. GEOLOGICAL SURVEY MODULAR FINITE-DIFFERENCE GROUNDWATER-FLOW MODEL
                            VERSION 1.2.0 03/01/2020
                    BASED ON MODFLOW-2005 VERSION 1.12.00 02/03/2017

 LIST FILE: ./output/Agwater1_high.lst
                         UNIT    9

 OPENING ./input/Agwater1.ba6
 FILE TYPE:BAS6   UNIT   75   STATUS:OLD    
 FORMAT:FORMATTED              ACCESS:SEQUENTIAL          

 OPENING ./input/Agwater1.upw
 FILE TYPE:UPW   UNIT    7   STATUS:OLD    
 FORMAT:FORMATTED              ACCESS:SEQUENTIAL          

 OPENING ./input/Agwater1.dis
 FILE TYPE:DIS   UNIT    8   STATUS:OLD    
 FORMAT:FORMATTED              ACCESS:SEQUENTIAL          

 OPENING ./input/Agwater1.nwt
 FILE TYPE:NWT   UNIT   13   STATUS:OLD    
 FORMAT:FORMATTED              ACCESS:SEQUENTIAL          

 OPENING ./input/Agwater1.oc
 FILE TYPE:OC   UNIT   14   STATUS:OLD    
 FORMAT:FORMATTED              ACCESS:SEQUENTIAL          

 OPENING ./input/Agwater1.sfr
 FILE TYPE:SFR   UNIT   15   STATUS:OLD    
 FORMAT:FORMATTED              ACCESS:SEQUENTIAL          

 OPENING ./input/Agwater1.ghb
 FILE TYPE:GHB   UNIT   17   STATUS:OLD    
 FORMAT:FORMATTED              ACCESS:SEQUENTIAL          

 OPENING ./input/Agwater1_high.uzf
 FILE TYPE:UZF   UNIT   19   STATUS:OLD    
 FORMAT:FORMATTED              ACCESS:SEQUENTIAL          

 OPENING ./input/Agwater1.gag
 FILE TYPE:GAGE   UNIT   32   STATUS:OLD    
 FORMAT:FORMATTED              ACCESS:SEQUENTIAL          

 OPENING ./input/seg1.tab
 FILE TYPE:DATA   UNIT   55   STATUS:UNKNOWN
 FORMAT:FORMATTED              ACCESS:SEQUENTIAL          

 OPENING ./input/seg9.tab
 FILE TYPE:DATA   UNIT   56   STATUS:UNKNOWN
 FORMAT:FORMATTED              ACCESS:SEQUENTIAL          

 OPENING ./input/Agwater1.ag
 FILE TYPE:AG   UNIT   57   STATUS:OLD    
 FORMAT:FORMATTED              ACCESS:SEQUENTIAL          

 OPENING ./output/EP1b_Agwater1_high.hed
 FILE TYPE:DATA   UNIT   62   STATUS:UNKNOWN
 FORMAT:FORMATTED              ACCESS:SEQUENTIAL          

 OPENING ./output/Agwater1GW_high.ts5
 FILE TYPE:DATA   UNIT  105   STATUS:UNKNOWN
 FORMAT:FORMATTED              ACCESS:SEQUENTIAL          

 OPENING ./output/Agwater1GW_high_ET.ts5
 FILE TYPE:DATA   UNIT  106   STATUS:UNKNOWN
 FORMAT:FORMATTED              ACCESS:SEQUENTIAL          

 OPENING ./output/Agwater1GW_high_ET.all
 FILE TYPE:DATA   UNIT  107   STATUS:UNKNOWN
 FORMAT:FORMATTED              ACCESS:SEQUENTIAL          

 OPENING ./output/Agwater1GW_high.all
 FILE TYPE:DATA   UNIT  108   STATUS:UNKNOWN
 FORMAT:FORMATTED              ACCESS:SEQUENTIAL          

 OPENING ./output/Agwater1_high.uzfot
 FILE TYPE:DATA(BINARY)   UNIT   61   STATUS:UNKNOWN
 FORMAT:BINARY                 ACCESS:SEQUENTIAL          

 OPENING ./output/Agwater1cbc_high.unf
 FILE TYPE:DATA(BINARY)   UNIT  102   STATUS:UNKNOWN
 FORMAT:BINARY                 ACCESS:SEQUENTIAL          

 OPENING ./output/Agwater1_high.uzf1
 FILE TYPE:DATA   UNIT   65   STATUS:UNKNOWN
 FORMAT:FORMATTED              ACCESS:SEQUENTIAL          

 OPENING ./output/Agwater1_high.uzf2
 FILE TYPE:DATA   UNIT   66   STATUS:UNKNOWN
 FORMAT:FORMATTED              ACCESS:SEQUENTIAL          

 OPENING ./output/Agwater1_high.uzf3
 FILE TYPE:DATA   UNIT   67   STATUS:UNKNOWN
 FORMAT:FORMATTED              ACCESS:SEQUENTIAL          

 OPENING ./output/Agwater1_high.uzf4
 FILE TYPE:DATA   UNIT   68   STATUS:UNKNOWN
 FORMAT:FORMATTED              ACCESS:SEQUENTIAL          

 OPENING ./output/Agwater1_high.flw
 FILE TYPE:DATA   UNIT   81   STATUS:UNKNOWN
 FORMAT:FORMATTED              ACCESS:SEQUENTIAL          

 OPENING ./output/Agwater1_high.sg1
 FILE TYPE:DATA   UNIT   83   STATUS:UNKNOWN
 FORMAT:FORMATTED              ACCESS:SEQUENTIAL          

 OPENING ./output/Agwater1_high.sg2
 FILE TYPE:DATA   UNIT   84   STATUS:UNKNOWN
 FORMAT:FORMATTED              ACCESS:SEQUENTIAL          

 OPENING ./output/Agwater1_high.sg3
 FILE TYPE:DATA   UNIT   85   STATUS:UNKNOWN
 FORMAT:FORMATTED              ACCESS:SEQUENTIAL          

 OPENING ./output/Agwater1_high.sg4
 FILE TYPE:DATA   UNIT   86   STATUS:UNKNOWN
 FORMAT:FORMATTED              ACCESS:SEQUENTIAL          

 OPENING ./output/Agwater1_high.sg5
 FILE TYPE:DATA   UNIT   87   STATUS:UNKNOWN
 FORMAT:FORMATTED              ACCESS:SEQUENTIAL          

 OPENING ./output/Agwater1_high.sg6
 FILE TYPE:DATA   UNIT   88   STATUS:UNKNOWN
 FORMAT:FORMATTED              ACCESS:SEQUENTIAL          

 OPENING ./output/Agwater1_high.sg7
 FILE TYPE:DATA   UNIT   89   STATUS:UNKNOWN
 FORMAT:FORMATTED              ACCESS:SEQUENTIAL          

 OPENING ./output/Agwater1_high.sg8
 FILE TYPE:DATA   UNIT   90   STATUS:UNKNOWN
 FORMAT:FORMATTED              ACCESS:SEQUENTIAL          

 BAS -- BASIC PACKAGE, VERSION 1.1.4, 4/01/2018 INPUT READ FROM UNIT   75
 
 MODFLOW was compiled using mixed precision
 Precision of REAL variables:           6
 Precision of DOUBLE PRECISION variables:          15

 DISCRETIZATION INPUT DATA READ FROM UNIT    8
 #Test problem 2-- Discretization input
 #Example problem using the UZF1 Package
    1 LAYERS        15 ROWS        10 COLUMNS
   49 STRESS PERIOD(S) IN SIMULATION
 MODEL TIME UNIT IS SECONDS
 MODEL LENGTH UNIT IS FEET
  Confining bed flag for each layer:
   0

                     DELR =   5000.00    

                     DELC =   5000.00    



           TOP ELEVATION OF LAYER 1
 READING ON UNIT    8 WITH FORMAT: (10F7.0)            

            1           2           3           4           5           6           7           8           9          10
 ........................................................................................................................
   1    1105.       1105.       0.000       0.000       0.000       0.000       0.000       0.000       0.000       0.000    
   2    1105.       1095.       1105.       0.000       0.000       1100.       1100.       1110.       0.000       0.000    
   3    0.000       1100.       1085.       1080.       1078.       1076.       1073.       1090.       0.000       0.000    
   4    1110.       1100.       1090.       1085.       1076.       1080.       1080.       1070.       1100.       0.000    
   5    1110.       1100.       1085.       1080.       1078.       1074.       1077.       1066.       1075.       1080.    
   6    1105.       1095.       1080.       1077.       1073.       1069.       1070.       1063.       1085.       1095.    
   7    1105.       1090.       1075.       1072.       1070.       1065.       1065.       1069.       1090.       0.000    
   8    0.000       1080.       1070.       1068.       1063.       1060.       1063.       1067.       1090.       0.000    
   9    0.000       1075.       1065.       1062.       1058.       1052.       1055.       1065.       1090.       0.000    
  10    0.000       1070.       1060.       1055.       1046.       1046.       1044.       1060.       1088.       1100.    
  11    0.000       1055.       1050.       1045.       1041.       1042.       1040.       1050.       1075.       0.000    
  12    1027.       1028.       1028.       1032.       1032.       1033.       1032.       1040.       1060.       0.000    
  13    997.0       1004.       1008.       1014.       1020.       1027.       1032.       1038.       1050.       0.000    
  14    0.000       1030.       1040.       1045.       1050.       1050.       1050.       1050.       1044.       0.000    
  15    0.000       0.000       1080.       1080.       1080.       1080.       0.000       0.000       0.000       0.000    



             MODEL LAYER BOTTOM EL. FOR LAYER   1
 READING ON UNIT    8 WITH FORMAT: (10F7.0)            

            1           2           3           4           5           6           7           8           9          10
 ........................................................................................................................
   1    1000.       1000.       0.000       0.000       0.000       0.000       0.000       0.000       0.000       0.000    
   2    1000.       900.0       900.0       0.000       0.000       950.0       950.0       950.0       0.000       0.000    
   3    0.000       850.0       670.0       680.0       680.0       770.0       770.0       890.0       0.000       0.000    
   4    925.0       850.0       650.0       650.0       650.0       680.0       740.0       850.0       950.0       0.000    
   5    925.0       800.0       650.0       600.0       600.0       600.0       650.0       720.0       850.0       950.0    
   6    925.0       800.0       650.0       600.0       550.0       600.0       650.0       720.0       850.0       970.0    
   7    925.0       800.0       650.0       600.0       550.0       600.0       650.0       720.0       950.0       0.000    
   8    0.000       850.0       700.0       650.0       570.0       600.0       700.0       850.0       950.0       0.000    
   9    0.000       850.0       700.0       650.0       540.0       580.0       700.0       850.0       950.0       0.000    
  10    0.000       850.0       700.0       630.0       530.0       580.0       650.0       800.0       900.0       950.0    
  11    0.000       850.0       700.0       620.0       580.0       620.0       700.0       800.0       900.0       0.000    
  12    900.0       830.0       710.0       640.0       600.0       650.0       700.0       800.0       900.0       0.000    
  13    900.0       810.0       750.0       700.0       650.0       700.0       750.0       800.0       900.0       0.000    
  14    0.000       950.0       850.0       850.0       850.0       850.0       850.0       850.0       850.0       0.000    
  15    0.000       0.000       950.0       950.0       950.0       950.0       0.000       0.000       0.000       0.000    


 STRESS PERIOD     LENGTH       TIME STEPS     MULTIPLIER FOR DELT    SS FLAG
 ----------------------------------------------------------------------------
        1         86400.00          1                    1.000         SS
        2         2630000.         30                    1.000         TR
        3         2630000.         30                    1.000         TR
        4         2630000.         30                    1.000         TR
        5         2630000.         30                    1.000         TR
        6         2630000.         30                    1.000         TR
        7         2630000.         30                    1.000         TR
        8         2630000.         30                    1.000         TR
        9         2630000.         30                    1.000         TR
       10         2630000.         30                    1.000         TR
       11         2630000.         30                    1.000         TR
       12         2630000.         30                    1.000         TR
       13         2630000.         30                    1.000         TR
       14         2630000.         30                    1.000         TR
       15         2630000.         30                    1.000         TR
       16         2630000.         30                    1.000         TR
       17         2630000.         30                    1.000         TR
       18         2630000.         30                    1.000         TR
       19         2630000.         30                    1.000         TR
       20         2630000.         30                    1.000         TR
       21         2630000.         30                    1.000         TR
       22         2630000.         30                    1.000         TR
       23         2630000.         30                    1.000         TR
       24         2630000.         30                    1.000         TR
       25         2630000.         30                    1.000         TR
       26         2630000.         30                    1.000         TR
       27         2630000.         30                    1.000         TR
       28         2630000.         30                    1.000         TR
       29         2630000.         30                    1.000         TR
       30         2630000.         30                    1.000         TR
       31         2630000.         30                    1.000         TR
       32         2630000.         30                    1.000         TR
       33         2630000.         30                    1.000         TR
       34         2630000.         30                    1.000         TR
       35         2630000.         30                    1.000         TR
       36         2630000.         30                    1.000         TR
       37         2630000.         30                    1.000         TR
       38         2630000.         30                    1.000         TR
       39         2630000.         30                    1.000         TR
       40         2630000.         30                    1.000         TR
       41         2630000.         30                    1.000         TR
       42         2630000.         30                    1.000         TR
       43         2630000.         30                    1.000         TR
       44         2630000.         30                    1.000         TR
       45         2630000.         30                    1.000         TR
       46         2630000.         30                    1.000         TR
       47         2630000.         30                    1.000         TR
       48         2630000.         30                    1.000         TR
       49         2630000.         30                    1.000         TR

 COMBINED STEADY-STATE AND TRANSIENT SIMULATION



 
 #Test Simulation 2-- Example problem using the UZF1 Package                     
 #Modified from example Problem 1 of SFR1 documentation report                   
 THE FREE FORMAT OPTION HAS BEEN SELECTED



                     BOUNDARY ARRAY FOR LAYER   1
 READING ON UNIT   75 WITH FORMAT: (20I4)              

                1           2           3           4           5           6           7           8           9          10
 ............................................................................................................................
   1            1           1           0           0           0           0           0           0           0           0
   2            1           1           1           0           0           1           1           1           0           0
   3            0           1           1           1           1           1           1           1           0           0
   4            1           1           1           1           1           1           1           1           1           0
   5            1           1           1           1           1           1           1           1           1           1
   6            1           1           1           1           1           1           1           1           1           1
   7            1           1           1           1           1           1           1           1           1           0
   8            0           1           1           1           1           1           1           1           1           0
   9            0           1           1           1           1           1           1           1           1           0
  10            0           1           1           1           1           1           1           1           1           1
  11            0           1           1           1           1           1           1           1           1           0
  12            1           1           1           1           1           1           1           1           1           0
  13            1           1           1           1           1           1           1           1           1           0
  14            0           1           1           1           1           1           1           1           1           0
  15            0           0           1           1           1           1           0           0           0           0

 AQUIFER HEAD WILL BE SET TO   6999.0     AT ALL NO-FLOW NODES (IBOUND=0).



                       INITIAL HEAD FOR LAYER   1
 READING ON UNIT   75 WITH FORMAT: (10F8.0)            

            1           2           3           4           5           6           7           8           9          10
 ........................................................................................................................
   1    1093.       1089.       6999.       6999.       6999.       6999.       6999.       6999.       6999.       6999.    
   2    1090.       1087.       1081.       6999.       6999.       1072.       1071.       1071.       6999.       6999.    
   3    6999.       1079.       1078.       1074.       1072.       1071.       1069.       1068.       6999.       6999.    
   4    1069.       1071.       1070.       1067.       1065.       1064.       1064.       1066.       1066.       6999.    
   5    1065.       1064.       1063.       1062.       1061.       1061.       1060.       1062.       1066.       1068.    
   6    1060.       1058.       1057.       1056.       1056.       1057.       1057.       1059.       1062.       1066.    
   7    1056.       1053.       1052.       1051.       1051.       1052.       1053.       1055.       1056.       6999.    
   8    6999.       1046.       1046.       1046.       1046.       1046.       1048.       1050.       1050.       6999.    
   9    6999.       1039.       1039.       1039.       1040.       1041.       1042.       1043.       1044.       6999.    
  10    6999.       1031.       1032.       1033.       1034.       1035.       1037.       1038.       1039.       1042.    
  11    6999.       1021.       1023.       1027.       1029.       1030.       1032.       1034.       1036.       6999.    
  12    1001.       1009.       1015.       1020.       1023.       1026.       1029.       1030.       1034.       6999.    
  13    994.5      1000.0       1007.       1013.       1019.       1024.       1029.       1034.       1036.       6999.    
  14    6999.       1004.       1009.       1014.       1019.       1024.       1029.       1035.       1039.       6999.    
  15    6999.       6999.       1012.       1015.       1019.       1022.       6999.       6999.       6999.       6999.    

 OUTPUT CONTROL IS SPECIFIED ONLY AT TIME STEPS FOR WHICH OUTPUT IS DESIRED
 HEADS WILL BE SAVED WITH FORMAT: (10F10.3)           
 SAVED HEADS WILL BE LABELED
 COMPACT CELL-BY-CELL BUDGET FILES WILL BE WRITTEN
 HEAD PRINT FORMAT CODE IS   4    DRAWDOWN PRINT FORMAT CODE IS   0
 HEADS WILL BE SAVED ON UNIT   62    DRAWDOWNS WILL BE SAVED ON UNIT    0
 # NWT Input File
 # Test Problem 3 for MODFLOW-NWT
 #HEADTOL  FLUXTOL MAXITEROUT THICKFACT LINMETH IPRNWT IBOTAV OPTIONS DBDREDUCE DBDINCREASE DBDGAMMA MOMFACT BACKFLAG MAXBACKITER BACKTOL BACKREDUCE

 NWT1 -- Newton Solver, VERSION 1.1.4, 4/01/2018
         INPUT READ FROM UNIT 13

 SPECIFIED OPTION:
 SOLVER INPUT VALUES ARE SPECIFIED BY USER
 ***XMD linear solver will be used***
 
   CONVERGENCE CRITERION OF   0.100000E-03 FOR HEAD SOLUTION
   AND A TOLERANCE OF   0.100000E+03 FOR FLOW SOLUTION AND 
   A MAXIMUM OF   500 OUTER ITERATIONS. 


   D-B-D REDUCTION FACTOR OF    0.970000E+00 AND 
   A D-B-D INCREASE FACTOR OF    0.100000E-04 AND 
   A D-B-D RELAXATION OF    0.000000E+00 AND 
   A MOMENTUM FACTOR OF    0.100000E+00 .


 ***BACKTRACKING IS INACTIVE***
 XMD -- LINEAR SOLUTION BY XMD PACKAGE VERSION 1.30
     BY MOTOMU IBARAKI, OHIO STATE UNIVERSITY, COLOMBUS, OH
                 INPUT READ FROM UNIT 13
 ACCELERATION METHOD                    (IACL) =         1
 NODE ORDERING FLAG                   (NORDER) =         0
 LEVEL OF FILL                         (LEVEL) =         7
 MAXIMUM NUMBER OF ORTHOGONALIZATIONS  (NORTH) =         7
 INDEX FOR USING REDUCED SYSTEM      (IREDSYS) =         1
 RESID. REDUCTION CONVERGE CRITERION  (RRCTOL) =  0.000000E+00
 INDEX FOR USING DROP TOLERANCE     (IDROPTOL) =         1
 DROP TOLERANCE VALUE                  (EPSRN) =  0.500000E-02
 CONVERGENCE CRITERIA OF           (HCLOSEXMD) =  0.100000E-03
 MAX. NUMBER OF LINEAR ITERATIONS  (MXITERXMD) =        50


 UPW1 -- UPSTREAM WEIGHTING FLOW PACKAGE, VERSION 1.1.4, 4/01/2018
         INPUT READ FROM UNIT  7

 #Layer-Property Flow Package input for test simulation 2
 CELL-BY-CELL FLOWS WILL BE SAVED ON UNIT  102
 No named parameters

   LAYER FLAGS:
 LAYER       LAYTYP          LAYAVG    CHANI           LAYVKA           LAYWET
 ---------------------------------------------------------------------------
    1             1             0     1.000E+00             0             0

   INTERPRETATION OF LAYER FLAGS:
                        INTERBLOCK     HORIZONTAL    DATA IN
         LAYER TYPE   TRANSMISSIVITY   ANISOTROPY   ARRAY VKA   WETTABILITY
 LAYER   (LAYTYP)        (LAYAVG)      (CHANI)     (LAYVKA)       (LAYWET)
 ---------------------------------------------------------------------------
    1   CONVERTIBLE      HARMONIC     1.000E+00    VERTICAL K  NON-WETTABLE



              HYD. COND. ALONG ROWS FOR LAYER   1
 READING ON UNIT    7 WITH FORMAT: (10F5.0)            

            1           2           3           4           5           6           7           8           9          10
 ........................................................................................................................
   1   2.0000E-03  2.0000E-03   0.000       0.000       0.000       0.000       0.000       0.000       0.000       0.000    
   2   4.0000E-04  2.0000E-03  2.0000E-03   0.000       0.000      4.0000E-04  4.0000E-04  4.0000E-04   0.000       0.000    
   3    0.000      4.0000E-04  2.0000E-03  2.0000E-03  4.0000E-04  4.0000E-04  4.0000E-04  4.0000E-04   0.000       0.000    
   4   4.0000E-04  4.0000E-04  4.0000E-04  2.0000E-03  2.0000E-03  2.0000E-03  4.0000E-04  4.0000E-04  4.0000E-04   0.000    
   5   4.0000E-04  4.0000E-04  4.0000E-04  2.0000E-03  2.0000E-03  2.0000E-03  2.0000E-03  2.0000E-03  2.0000E-03  2.0000E-03
   6   4.0000E-04  4.0000E-04  4.0000E-04  2.0000E-03  2.0000E-03  2.0000E-03  2.0000E-03  2.0000E-03  4.0000E-04  4.0000E-04
   7   4.0000E-04  4.0000E-04  4.0000E-04  2.0000E-03  2.0000E-03  2.0000E-03  2.0000E-03  2.0000E-03  4.0000E-04   0.000    
   8    0.000      4.0000E-04  4.0000E-04  2.0000E-03  2.0000E-03  2.0000E-03  2.0000E-03  4.0000E-04  4.0000E-04   0.000    
   9    0.000      4.0000E-04  4.0000E-04  2.0000E-03  2.0000E-03  2.0000E-03  2.0000E-03  4.0000E-04  4.0000E-04   0.000    
  10    0.000      4.0000E-04  4.0000E-04  2.0000E-03  2.0000E-03  2.0000E-03  2.0000E-03  4.0000E-04  4.0000E-04  4.0000E-04
  11    0.000      4.0000E-04  4.0000E-04  2.0000E-03  2.0000E-03  2.0000E-03  2.0000E-03  4.0000E-04  4.0000E-04   0.000    
  12   4.0000E-04  4.0000E-04  2.0000E-03  2.0000E-03  2.0000E-03  2.0000E-03  2.0000E-03  4.0000E-04  4.0000E-04   0.000    
  13   2.0000E-03  2.0000E-03  2.0000E-03  2.0000E-03  2.0000E-03  2.0000E-03  2.0000E-03  2.0000E-03  2.0000E-03   0.000    
  14    0.000      4.0000E-04  4.0000E-04  4.0000E-04  4.0000E-04  4.0000E-04  4.0000E-04  4.0000E-04  2.0000E-03   0.000    
  15    0.000       0.000      4.0000E-04  4.0000E-04  4.0000E-04  4.0000E-04   0.000       0.000       0.000       0.000    

      VERTICAL HYD. COND. =  1.000000E-06 FOR LAYER   1

         SPECIFIC STORAGE =  1.000000E-06 FOR LAYER   1



                     SPECIFIC YIELD FOR LAYER   1
 READING ON UNIT    7 WITH FORMAT: (10F5.0)            

            1           2           3           4           5           6           7           8           9          10
 ........................................................................................................................
   1   0.2000      0.2000       0.000       0.000       0.000       0.000       0.000       0.000       0.000       0.000    
   2   0.1000      0.2000      0.2000       0.000       0.000      0.1000      0.1000      0.1000       0.000       0.000    
   3    0.000      0.1000      0.2000      0.2000      0.1000      0.1000      0.1000      0.1000       0.000       0.000    
   4   0.1000      0.1000      0.1000      0.2000      0.2000      0.2000      0.1000      0.1000      0.1000       0.000    
   5   0.1000      0.1000      0.1000      0.2000      0.2000      0.2000      0.2000      0.2000      0.2000      0.2000    
   6   0.1000      0.1000      0.1000      0.2000      0.2000      0.2000      0.2000      0.2000      0.1000      0.1000    
   7   0.1000      0.1000      0.1000      0.2000      0.2000      0.2000      0.2000      0.2000      0.1000       0.000    
   8    0.000      0.1000      0.1000      0.2000      0.2000      0.2000      0.2000      0.1000      0.1000       0.000    
   9    0.000      0.1000      0.1000      0.2000      0.2000      0.2000      0.2000      0.1000      0.1000       0.000    
  10    0.000      0.1000      0.1000      0.2000      0.2000      0.2000      0.2000      0.1000      0.1000      0.1000    
  11    0.000      0.1000      0.1000      0.2000      0.2000      0.2000      0.2000      0.1000      0.1000       0.000    
  12   0.1000      0.1000      0.2000      0.2000      0.2000      0.2000      0.2000      0.1000      0.1000       0.000    
  13   0.2000      0.2000      0.2000      0.2000      0.2000      0.2000      0.2000      0.2000      0.2000       0.000    
  14    0.000      0.1000      0.1000      0.1000      0.1000      0.1000      0.1000      0.1000      0.2000       0.000    
  15    0.000       0.000      0.1000      0.1000      0.1000      0.1000       0.000       0.000       0.000       0.000    

 GHB -- GENERAL-HEAD BOUNDARY PACKAGE, VERSION 7, 5/2/2005
         INPUT READ FROM UNIT   17
 No named parameters
 MAXIMUM OF      2 ACTIVE GHB CELLS AT ONE TIME
 CELL-BY-CELL FLOWS WILL BE PRINTED WHEN ICBCFL NOT 0


     0 GHB parameters

 SFR7 -- STREAMFLOW ROUTING PACKAGE, VERSION 1.0.5, 2012-04-05
         INPUT READ FROM UNIT  15
 #SFR2 Package input for Testing supplimental pumping and irrigation
 No named parameters

 PROCESSING SFR2 OPTIONS
 
          1 Specified inflow files will be read with a maximum of        759 row entries per file
 
Stream loss will be calculated as a factor of the streambed hydraulic conductivity. Multiplication factor is equal to     0.1000000015E+00

 END PROCESSING SFR2 OPTIONS
 


 NUMBER OF STREAM REACHES IS   36

 NUMBER OF STREAM SEGMENTS IS    8

 NUMBER OF STREAM PARAMETERS IS    0

 NUMBER OF STREAM SEGMENTS DEFINED USING PARAMETERS IS              0

 MAXIMUM ERROR FOR STREAM LEAKAGE RATES IS  1.00E-06

 CONSTANT FOR MANNINGS EQUATION IS  1.4860E+00



 STREAM OUTPUT WILL BE WRITTEN TO FILE ON UNIT   81


   STREAM NETWORK DESCRIPTION: 

   LAYER    ROW    COL   SEGMENT   REACH     LENGTH
                          NUMBER   NUMBER    IN CELL        
   --------------------------------------------------
      1      1      1       1        1    4.5000E+03
      1      2      2       1        2    7.0000E+03
      1      3      3       1        3    6.0000E+03
      1      3      4       1        4    5.5500E+03
      1      4      5       2        1    6.5000E+03
      1      5      6       2        2    5.0000E+03
      1      6      6       2        3    5.0000E+03
      1      7      6       2        4    5.0000E+03
      1      8      6       2        5    5.0000E+03
      1      3      5       3        1    5.0000E+03
      1      3      6       3        2    5.0000E+03
      1      3      7       3        3    4.5000E+03
      1      4      8       3        4    6.0000E+03
      1      5      8       3        5    5.0000E+03
      1      6      8       3        6    2.0000E+03
      1      5     10       4        1    2.5000E+03
      1      5      9       4        2    5.0000E+03
      1      6      8       4        3    3.5000E+03
      1      6      8       5        1    4.0000E+03
      1      7      7       5        2    5.0000E+03
      1      8      7       5        3    3.5000E+03
      1      8      6       5        4    2.5000E+03
      1      9      6       6        1    5.0000E+03
      1     10      7       6        2    5.0000E+03
      1     11      7       6        3    5.0000E+03
      1     12      7       6        4    5.0000E+03
      1     13      7       6        5    2.0000E+03
      1     14      9       7        1    5.0000E+03
      1     13      8       7        2    5.5000E+03
      1     13      7       7        3    5.0000E+03
      1     13      6       8        1    5.0000E+03
      1     13      5       8        2    5.0000E+03
      1     13      4       8        3    5.0000E+03
      1     13      3       8        4    5.0000E+03
      1     13      2       8        5    5.0000E+03
      1     13      1       8        6    3.0000E+03




 UZF1 -- UNSATURATED FLOW PACKAGE, VERSION 1.5, 09/10/2019
         INPUT READ FROM UNIT 19
 #UZF Package input for test simulation 2
 No named parameters

 PROCESSING UZF OPTIONS
 
 
 INITIAL WATER CONTENT (THTI) WILL BE 
READ FOR THE FIRST SS OR TR STRESS PERIOD
 
 
 RESIDUAL WATER CONTENT (THTR) WILL BE 
READ AND USED FOR THE FIRST TRANSIENT STRESS 
PERIOD
 
 
AIR ENTRY PRESSURE AND ROOT PRESSURE WILL BE 
SPECIFIED BY USER AND UZ ET WILL BE SIMULATED 
AS PRESSURE-HEAD DEPENDENT
 
 
INFILTRATION WILL BE REJECTED USING 
LAND SURFACE K
 
 
HYDRAULIC CONDUCTIVITY OF LAND SURFACE 
WILL BE READ
 

 END PROCESSING UZF OPTIONS



            AREAL EXTENT OF UZ FLOW
 READING ON UNIT   19 WITH FORMAT: (20I4)              

                1           2           3           4           5           6           7           8           9          10
 ............................................................................................................................
   1            1           1           0           0           0           0           0           0           0           0
   2            1           1           1           0           0           1           1           1           0           0
   3            0           1           1           1           1           1           1           1           0           0
   4            1           1           1           1           1           1           1           1           1           0
   5            1           1           1           1           1           1           1           1           1           1
   6            1           1           1           1           1           1           1           1           1           1
   7            1           1           1           1           1           1           1           1           1           0
   8            0           1           1           1           1           1           1           1           1           0
   9            0           1           1           1           1           1           1           1           1           0
  10            0           1           1           1           1           1           1           1           1           1
  11            0           1           1           1           1           1           1           1           1           0
  12            1           1           1           1           1           1           1           1           1           0
  13            1           1           1           1           1           1           1           1           1           0
  14            0           1           1           1           1           1           1           1           1           0
  15            0           0           1           1           1           1           0           0           0           0
 OPTION 1 -- RECHARGE IN UZF TO TOP LAYER ONLY 



            ROUTING OVERLAND RUNOFF
 READING ON UNIT   19 WITH FORMAT: (20I4)              

                1           2           3           4           5           6           7           8           9          10
 ............................................................................................................................
   1            1           1           0           0           0           0           0           0           0           0
   2            1           1           1           0           0           3           3           3           0           0
   3            0           1           1           1           3           3           3           3           0           0
   4            8           8           2           2           2           2           2           3           3           0
   5            8           8           8           8           2           2           2           3           4           4
   6            8           8           8           8           8           2           2           4           4           4
   7            8           8           8           8           8           2           5           5           5           0
   8            0           8           8           8           8           2           5           5           5           0
   9            0           8           8           8           8           6           6           6           6           0
  10            0           8           8           8           8           6           6           6           6           6
  11            0           8           8           8           8           8           6           6           7           0
  12            8           8           8           8           8           8           6           7           7           0
  13            8           8           8           8           8           8           7           7           7           0
  14            0           8           8           8           8           8           7           7           7           0
  15            0           0           8           8           8           8           0           0           0           0



               SATURATED VERTICAL K
 READING ON UNIT   19 WITH FORMAT: (10F4.0)            

            1           2           3           4           5           6           7           8           9          10
 ........................................................................................................................
   1   1.0000E-04  1.0000E-04   0.000       0.000       0.000       0.000       0.000       0.000       0.000       0.000    
   2   1.0000E-04  1.0000E-04  1.0000E-04   0.000       0.000      1.0000E-04  1.0000E-04  1.0000E-04   0.000       0.000    
   3    0.000      1.0000E-04  1.0000E-04  1.0000E-04  1.0000E-04  1.0000E-04  1.0000E-04  1.0000E-04   0.000       0.000    
   4   1.0000E-04  1.0000E-04  1.0000E-04  1.0000E-04  1.0000E-04  1.0000E-04  1.0000E-04  1.0000E-04  1.0000E-04   0.000    
   5   1.0000E-04  1.0000E-04  1.0000E-04  1.0000E-04  1.0000E-04  1.0000E-04  1.0000E-04  1.0000E-04  1.0000E-04  1.0000E-04
   6   1.0000E-04  1.0000E-04  1.0000E-04  1.0000E-04  1.0000E-04  1.0000E-04  1.0000E-04  1.0000E-04  1.0000E-04  1.0000E-04
   7   1.0000E-04  1.0000E-04  1.0000E-04  1.0000E-04  1.0000E-04  1.0000E-04  1.0000E-04  1.0000E-04  1.0000E-04   0.000    
   8    0.000      1.0000E-04  1.0000E-04  1.0000E-04  1.0000E-04  1.0000E-04  1.0000E-04  1.0000E-04  1.0000E-04   0.000    
   9    0.000      1.0000E-04  1.0000E-04  1.0000E-04  1.0000E-04  1.0000E-04  1.0000E-04  1.0000E-04  1.0000E-04   0.000    
  10    0.000      1.0000E-04  1.0000E-04  1.0000E-04  1.0000E-04  1.0000E-04  1.0000E-04  1.0000E-04  1.0000E-04  1.0000E-04
  11    0.000      1.0000E-04  1.0000E-04  1.0000E-04  1.0000E-04  1.0000E-04  1.0000E-04  1.0000E-04  1.0000E-04   0.000    
  12   1.0000E-04  1.0000E-04  1.0000E-04  1.0000E-04  1.0000E-04  1.0000E-04  1.0000E-04  1.0000E-04  1.0000E-04   0.000    
  13   1.0000E-04  1.0000E-04  1.0000E-04  1.0000E-04  1.0000E-04  1.0000E-04  1.0000E-04  1.0000E-04  1.0000E-04   0.000    
  14    0.000      1.0000E-04  1.0000E-04  1.0000E-04  1.0000E-04  1.0000E-04  1.0000E-04  1.0000E-04  1.0000E-04   0.000    
  15    0.000       0.000      1.0000E-04  1.0000E-04  1.0000E-04  1.0000E-04   0.000       0.000       0.000       0.000    



            LAND SURFACE VERTICAL K
 READING ON UNIT   19 WITH FORMAT: (10F4.0)            

            1           2           3           4           5           6           7           8           9          10
 ........................................................................................................................
   1   1.0000E-05  1.0000E-05   0.000       0.000       0.000       0.000       0.000       0.000       0.000       0.000    
   2   1.0000E-05  1.0000E-05  1.0000E-05   0.000       0.000      1.0000E-05  1.0000E-05  1.0000E-05   0.000       0.000    
   3    0.000      1.0000E-05  1.0000E-05  1.0000E-05  1.0000E-05  1.0000E-05  1.0000E-05  1.0000E-05   0.000       0.000    
   4   1.0000E-05  1.0000E-05  1.0000E-05  1.0000E-05  1.0000E-05  1.0000E-05  1.0000E-05  1.0000E-05  1.0000E-05   0.000    
   5   1.0000E-05  1.0000E-05  1.0000E-05  1.0000E-05  1.0000E-05  1.0000E-05  1.0000E-05  1.0000E-05  1.0000E-05  1.0000E-05
   6   1.0000E-05  1.0000E-05  1.0000E-05  1.0000E-05  1.0000E-05  1.0000E-05  1.0000E-05  1.0000E-05  1.0000E-05  1.0000E-05
   7   1.0000E-05  1.0000E-05  1.0000E-05  1.0000E-05  1.0000E-05  1.0000E-05  1.0000E-05  1.0000E-05  1.0000E-05   0.000    
   8    0.000      1.0000E-05  1.0000E-05  1.0000E-05  1.0000E-05  1.0000E-05  1.0000E-05  1.0000E-05  1.0000E-05   0.000    
   9    0.000      1.0000E-05  1.0000E-05  1.0000E-05  1.0000E-05  1.0000E-05  1.0000E-05  1.0000E-05  1.0000E-05   0.000    
  10    0.000      1.0000E-05  1.0000E-05  1.0000E-05  1.0000E-05  1.0000E-05  1.0000E-05  1.0000E-05  1.0000E-05  1.0000E-05
  11    0.000      1.0000E-05  1.0000E-05  1.0000E-05  1.0000E-05  1.0000E-05  1.0000E-05  1.0000E-05  1.0000E-05   0.000    
  12   1.0000E-05  1.0000E-05  1.0000E-05  1.0000E-05  1.0000E-05  1.0000E-05  1.0000E-05  1.0000E-05  1.0000E-05   0.000    
  13   1.0000E-05  1.0000E-05  1.0000E-05  1.0000E-05  1.0000E-05  1.0000E-05  1.0000E-05  1.0000E-05  1.0000E-05   0.000    
  14    0.000      1.0000E-05  1.0000E-05  1.0000E-05  1.0000E-05  1.0000E-05  1.0000E-05  1.0000E-05  1.0000E-05   0.000    
  15    0.000       0.000      1.0000E-05  1.0000E-05  1.0000E-05  1.0000E-05   0.000       0.000       0.000       0.000    

     BROOKS-COREY EPSILON =   4.50000    

  SATURATED WATER CONTENT =  0.300000    

   RESIDUAL WATER CONTENT =  8.000000E-02

    INITIAL WATER CONTENT =  8.000000E-02

UNSATURATED FLOW RESULTS WILL BE PRINTED TO SEPARATE FILES FOR SELECTED MODEL CELLS, AND TIME STEPS AS DEFINED BY OUTPUT CONTROL PACKAGE 

SELECTED MODEL CELLS ARE: 
 ROW NUMBER  COLUMN NUMBER  FORTRAN UNIT NUMBER  OUTPUT OPTION


       6             4                 65                 1
       6             5                 66                 2
       8             4                 67                 3
       0             0                 68                 4



   8 GAGING STATIONS WERE SPECIFIED.
     (Lakes are identified by a negative value of the Lake Number)
     RECORDS WILL BE WRITTEN TO SEPARATE OUTPUT FILES REPRESENTED BY FOLLOWING UNIT NUMBERS:

 Stream Gages:
  GAGE #   SEGMENT   REACH   UNIT   OUTTYPE
       1       1       4      83       1
       2       2       3      84       1
       3       3       5      85       1
       4       4       3      86       1
       5       5       4      87       4
       6       6       5      88       4
       7       7       3      89       4
       8       8       6      90       4





 AG -- AG PACKAGE FOR NWT VERSION 1.1.3,  8/01/2017 INPUT READ FROM UNIT   57
 # AG options

 PROCESSING AG OPTIONS
 
 AGRICULTURAL DEMANDS WILL BE CALCULATED USING ET DEFICIT
 
 
 OPTION TO APPLY PUMPED WATER AS IRRIGATION IS ACTIVE. PUMPED IRRIGATION WATER WILL BE APPLIED TO          6 CELLS/RHUS.
 
 
 THE MAXIMUM NUMBER OF WELLS FOR SUPPLEMENTING DIVERSIONS OR APPLYING IRRIGATION IS          6 WELLS.
 
 
  UNFORMATTED CELL BY CELL RATES FOR SUP AND IRR WELLS WILL BE SAVED TO FILE UNIT NUMBER         -2
 
 
  UNFORMATTED CELL BY CELL RATES FOR SUP AND IRR WELLS WILL BE SAVED TO FILE UNIT NUMBER         -2
 
 
  GROUND WATER IRRIGATION, POTENTIAL AND ACTUAL ET WILL BE SAVED TO TIMES SERIES OUTPUT FILES.
 
 
  GROUND WATER IRRIGATION, POTENTIAL AND ACTUAL ET WILL BE SAVED TO TIMES SERIES OUTPUT FILES.
 

 END PROCESSING AG OPTIONS
 # AG time series

 PROCESSING TIME SERIES

 FINISHED READING TIME SERIES
 A total number of          0 AG output time series files were activated for SURFACE WATER 
 A total number of          2 AG output time series files were activated for GROUNDWATER 
 A total number of          0 AG output time series files were activated for SURFACE WATER ET
 A total number of          2 AG output time series files were activated for GROUNDWATER ET
1
                            STRESS PERIOD NO.    1, LENGTH =   86400.00    
                            -----------------------------------------------

                              NUMBER OF TIME STEPS =     1

                               MULTIPLIER FOR DELT =     1.000

                            INITIAL TIME STEP SIZE =   86400.00    

 BOUND. NO. LAYER   ROW   COL     STAGE      CONDUCTANCE         
 ----------------------------------------------------------------
      1      1     13      1       988.0          0.3800E-01
      2      1     14      9       1045.          0.3800E-01

      2 GHB CELLS



 CLASSIFICATION & COUNT OF STREAM SEGMENTS BASED ON SOURCE OF INFLOW:

                HEADWATER     DIVERSION     RECEIVES TRIBUTARY FLOW
                ---------     ---------     -----------------------
                     3              1               4



                    INPUT DATA FOR EACH STREAM SEGMENT
 ---------------------------------------------------------------------------------------------

 SEGMENT    SEG.     INFLOW   OVERLAND   STREAM    STREAM   ICALC  OUTFLOW  DIVERSION PRIORITY
    NO.    LENGTH     RATE     RUNOFF      ET       PPT.    METH.  TO SEG.  FROM SEG.    NO.

      1  2.305E+04 2.500E+01 0.000E+00 0.000E+00 0.000E+00    4        2        0        0
      2  2.650E+04 0.000E+00 0.000E+00 0.000E+00 0.000E+00    1        6        0        0
      3  2.750E+04 2.000E+00 0.000E+00 0.000E+00 0.000E+00    0        5        1        0
      4  1.100E+04 1.000E+01 0.000E+00 0.000E+00 0.000E+00    1        5        0        0
      5  1.500E+04 0.000E+00 0.000E+00 0.000E+00 0.000E+00    3        6        0        0
      6  2.200E+04 0.000E+00 0.000E+00 0.000E+00 0.000E+00    1        8        0        0
      7  1.550E+04 1.500E+02 0.000E+00 0.000E+00 0.000E+00    2        8        0        0
      8  2.800E+04 0.000E+00 0.000E+00 0.000E+00 0.000E+00    2        0        0        0


         STREAMBED PROPERTIES AND STREAM DIMENSIONS

 SEGMENT     BED HYD. COND.      BED THICKNESS     ELEV.-TOP OF BED     WIDTH OF STREAM     DEPTH OF STREAM    STREAM ROUGHNESS
    No.     UPPER     LOWER     UPPER     LOWER     UPPER     LOWER     UPPER     LOWER     UPPER     LOWER   CHANNEL      BANK

     1  3.000E-05 3.000E-05 3.000E+00 3.000E+00 1.095E+03 1.075E+03
     2  3.000E-05 3.000E-05 3.000E+00 3.000E+00 1.075E+03 1.050E+03 1.200E+01 1.200E+01                     3.000E-02
     3  3.000E-05 3.000E-05 2.000E+00 2.000E+00 1.075E+03 1.060E+03 1.000E+01 6.000E+00 2.000E+00 1.000E+00
     4  3.000E-05 3.000E-05 3.000E+00 3.000E+00 1.080E+03 1.060E+03 1.000E+01 1.000E+01                     3.000E-02
     5  3.000E-05 3.000E-05 3.000E+00 3.000E+00 1.060E+03 1.045E+03
     6  3.000E-05 3.000E-05 3.000E+00 3.000E+00 1.045E+03 1.025E+03 1.200E+01 1.200E+01                     3.000E-02
     7  6.000E-05 6.000E-05 3.000E+00 3.000E+00 1.040E+03 1.025E+03                                         2.500E-02 4.500E-02
     8  6.000E-05 6.000E-05 3.000E+00 3.000E+00 1.025E+03 9.900E+02                                         2.500E-02 4.500E-02

  EIGHT POINT CROSS-SECTION DATA FOR SEGMENTS WITH ICALC = 2
    X VALUES X VALUES START FROM LEFT SIDE LOOKING DOWNSTREAM

     SEGMENT NO.        X1        X2        X3        X4        X5        X6        X7        X8
            7      0.000E+00 1.000E+01 8.000E+01 1.000E+02 1.500E+02 1.700E+02 2.400E+02 2.500E+02
            8      0.000E+00 1.000E+01 8.000E+01 1.000E+02 1.500E+02 1.700E+02 2.400E+02 2.500E+02

    Z VALUES ARE RELATIVE TO STREAMBED ELEVATION

     SEGMENT NO.          Z1        Z2        Z3        Z4        Z5        Z6        Z7        Z8
            7      2.000E+01 1.300E+01 1.000E+01 2.000E+00 0.000E+00 1.000E+01 1.300E+01 2.000E+01
            8      2.500E+01 1.700E+01 1.300E+01 4.000E+00 0.000E+00 1.000E+01 1.600E+01 2.000E+01

 STREAMFLOW RELATION WITH DEPTH IS BASED ON EQUATION Q = CDPTH*(DEPTH)**FDPTH
 STREAMFLOW RELATION WITH WIDTH IS BASED ON EQUATION Q = AWDTH*(WIDTH)**BWDTH

 SEGMENT NO.      CDPTH     FDPTH    AWDTH     BWDTH

          5 3.000E-01 3.500E-01 3.800E+00 6.000E-01

 STREAMFLOW RELATION WITH DEPTH AND WIDTH IS BASED ON TABULATED VALUES

  SEGMENT NO.   STREAMFLOW       DEPTH       WIDTH

          1     5.0000E-01   2.5000E-01   3.0000E+00
          1     1.0000E+00   4.0000E-01   3.5000E+00
          1     2.0000E+00   5.5000E-01   4.2000E+00
          1     4.0000E+00   7.0000E-01   5.3000E+00
          1     7.0000E+00   8.0000E-01   7.0000E+00
          1     1.0000E+01   9.0000E-01   8.5000E+00
          1     2.0000E+01   1.1000E+00   1.2000E+01
          1     3.0000E+01   1.2500E+00   1.4000E+01
          1     5.0000E+01   1.4000E+00   1.7000E+01
          1     7.5000E+01   1.7000E+00   2.0000E+01
          1     1.0000E+02   1.8000E+00   2.2000E+01



TABULAR INFLOWS WERE READ FOR SEGMENT      1
FROM FILE UNIT NUMBER     55

          TIMES                    INFLOWS
         0.0000000000E+00     0.5000000000E+01
         0.8640000000E+05     0.2200000000E+02
         0.2760000000E+07     0.4200000000E+02
         0.5270000000E+07     0.7700000000E+02
         0.7950000000E+07     0.2800000000E+02
         0.1050000000E+08     0.9900000000E+02
         0.1320000000E+08     0.8300000000E+02
         0.1580000000E+08     0.7500000000E+02
         0.1850000000E+08     0.6100000000E+02
         0.2120000000E+08     0.4700000000E+02
         0.2380000000E+08     0.3500000000E+02
         0.2640000000E+08     0.2600000000E+02
         0.2900000000E+08     0.2300000000E+02
         0.3170000000E+08     0.1900000000E+02
         0.3440000000E+08     0.2100000000E+02
         0.3680000000E+08     0.9800000000E+02
         0.3950000000E+08     0.7500000000E+02
         0.4210000000E+08     0.6300000000E+02
         0.4480000000E+08     0.5800000000E+02
         0.4730000000E+08     0.5400000000E+02
         0.5000000000E+08     0.3700000000E+02
         0.5270000000E+08     0.2500000000E+02
         0.5530000000E+08     0.2200000000E+02
         0.5800000000E+08     0.2100000000E+02
         0.6060000000E+08     0.2000000000E+02
         0.6320000000E+08     0.1900000000E+02



            AREAL INFILTRATION RATE
 READING ON UNIT   19 WITH FORMAT: (10F4.0)            

            1           2           3           4           5           6           7           8           9          10
 ........................................................................................................................
   1   1.0000E-10  2.0000E-10   0.000       0.000       0.000       0.000       0.000       0.000       0.000       0.000    
   2   2.0000E-10  1.0000E-10  2.0000E-10   0.000       0.000      8.0000E-10  8.0000E-10  5.0000E-10   0.000       0.000    
   3    0.000      5.0000E-10  1.0000E-10  1.0000E-10  8.0000E-10  8.0000E-10  5.0000E-10  5.0000E-10   0.000       0.000    
   4   8.0000E-10  5.0000E-10  1.0000E-10  1.0000E-10  1.0000E-10  1.0000E-10  1.0000E-10  1.0000E-10  2.0000E-10   0.000    
   5   8.0000E-10  5.0000E-10  1.0000E-10  1.0000E-10  1.0000E-10  1.0000E-10  1.0000E-10  1.0000E-10  1.0000E-10  1.0000E-10
   6   8.0000E-10  5.0000E-10  5.0000E-10  2.0000E-10  2.0000E-10  1.0000E-10  1.0000E-10  1.0000E-10  1.0000E-10  5.0000E-10
   7   8.0000E-10  5.0000E-10  5.0000E-10  2.0000E-10  2.0000E-10  1.0000E-10  1.0000E-10  2.0000E-10  2.0000E-10   0.000    
   8    0.000      5.0000E-10  5.0000E-10  2.0000E-10  2.0000E-10  1.0000E-10  1.0000E-10  2.0000E-10  5.0000E-10   0.000    
   9    0.000      5.0000E-10  5.0000E-10  2.0000E-10  2.0000E-10  1.0000E-10  1.0000E-10  2.0000E-10  5.0000E-10   0.000    
  10    0.000      5.0000E-10  5.0000E-10  2.0000E-10  2.0000E-10  1.0000E-10  1.0000E-10  2.0000E-10  5.0000E-10  8.0000E-10
  11    0.000      1.0000E-10  1.0000E-10  1.0000E-10  1.0000E-10  1.0000E-10  1.0000E-10  2.0000E-10  5.0000E-10   0.000    
  12   1.0000E-10  1.0000E-10  1.0000E-10  1.0000E-10  1.0000E-10  1.0000E-10  1.0000E-10  1.0000E-10  2.0000E-10   0.000    
  13   1.0000E-10  1.0000E-10  2.0000E-10  2.0000E-10  2.0000E-10  2.0000E-10  2.0000E-10  1.0000E-10  1.0000E-10   0.000    
  14    0.000      2.0000E-10  5.0000E-10  5.0000E-10  5.0000E-10  5.0000E-10  5.0000E-10  2.0000E-10  1.0000E-10   0.000    
  15    0.000       0.000      8.0000E-10  8.0000E-10  8.0000E-10  8.0000E-10   0.000       0.000       0.000       0.000    

                  ET RATE =  1.000000E-08

      ET EXTINCTION DEPTH =  0.500000    

 EXTINCTION WATER CONTENT =  8.000000E-02

EXTINCTION WATER CONTENT FOR CELL AT ROW     1, COLUMN     1 IS LESS THAN RESIDUAL WATER CONTENT-- SETTING EXTINCTION WATER CONTENT EQUAL TO RESIDUAL WATER CONTENT

EXTINCTION WATER CONTENT FOR CELL AT ROW     1, COLUMN     2 IS LESS THAN RESIDUAL WATER CONTENT-- SETTING EXTINCTION WATER CONTENT EQUAL TO RESIDUAL WATER CONTENT

EXTINCTION WATER CONTENT FOR CELL AT ROW     2, COLUMN     1 IS LESS THAN RESIDUAL WATER CONTENT-- SETTING EXTINCTION WATER CONTENT EQUAL TO RESIDUAL WATER CONTENT

EXTINCTION WATER CONTENT FOR CELL AT ROW     2, COLUMN     2 IS LESS THAN RESIDUAL WATER CONTENT-- SETTING EXTINCTION WATER CONTENT EQUAL TO RESIDUAL WATER CONTENT

EXTINCTION WATER CONTENT FOR CELL AT ROW     2, COLUMN     3 IS LESS THAN RESIDUAL WATER CONTENT-- SETTING EXTINCTION WATER CONTENT EQUAL TO RESIDUAL WATER CONTENT

EXTINCTION WATER CONTENT FOR CELL AT ROW     2, COLUMN     6 IS LESS THAN RESIDUAL WATER CONTENT-- SETTING EXTINCTION WATER CONTENT EQUAL TO RESIDUAL WATER CONTENT

EXTINCTION WATER CONTENT FOR CELL AT ROW     2, COLUMN     7 IS LESS THAN RESIDUAL WATER CONTENT-- SETTING EXTINCTION WATER CONTENT EQUAL TO RESIDUAL WATER CONTENT

EXTINCTION WATER CONTENT FOR CELL AT ROW     2, COLUMN     8 IS LESS THAN RESIDUAL WATER CONTENT-- SETTING EXTINCTION WATER CONTENT EQUAL TO RESIDUAL WATER CONTENT

EXTINCTION WATER CONTENT FOR CELL AT ROW     3, COLUMN     2 IS LESS THAN RESIDUAL WATER CONTENT-- SETTING EXTINCTION WATER CONTENT EQUAL TO RESIDUAL WATER CONTENT

EXTINCTION WATER CONTENT FOR CELL AT ROW     3, COLUMN     3 IS LESS THAN RESIDUAL WATER CONTENT-- SETTING EXTINCTION WATER CONTENT EQUAL TO RESIDUAL WATER CONTENT

EXTINCTION WATER CONTENT FOR CELL AT ROW     3, COLUMN     4 IS LESS THAN RESIDUAL WATER CONTENT-- SETTING EXTINCTION WATER CONTENT EQUAL TO RESIDUAL WATER CONTENT

EXTINCTION WATER CONTENT FOR CELL AT ROW     3, COLUMN     5 IS LESS THAN RESIDUAL WATER CONTENT-- SETTING EXTINCTION WATER CONTENT EQUAL TO RESIDUAL WATER CONTENT

EXTINCTION WATER CONTENT FOR CELL AT ROW     3, COLUMN     6 IS LESS THAN RESIDUAL WATER CONTENT-- SETTING EXTINCTION WATER CONTENT EQUAL TO RESIDUAL WATER CONTENT

EXTINCTION WATER CONTENT FOR CELL AT ROW     3, COLUMN     7 IS LESS THAN RESIDUAL WATER CONTENT-- SETTING EXTINCTION WATER CONTENT EQUAL TO RESIDUAL WATER CONTENT

EXTINCTION WATER CONTENT FOR CELL AT ROW     3, COLUMN     8 IS LESS THAN RESIDUAL WATER CONTENT-- SETTING EXTINCTION WATER CONTENT EQUAL TO RESIDUAL WATER CONTENT

EXTINCTION WATER CONTENT FOR CELL AT ROW     4, COLUMN     1 IS LESS THAN RESIDUAL WATER CONTENT-- SETTING EXTINCTION WATER CONTENT EQUAL TO RESIDUAL WATER CONTENT

EXTINCTION WATER CONTENT FOR CELL AT ROW     4, COLUMN     2 IS LESS THAN RESIDUAL WATER CONTENT-- SETTING EXTINCTION WATER CONTENT EQUAL TO RESIDUAL WATER CONTENT

EXTINCTION WATER CONTENT FOR CELL AT ROW     4, COLUMN     3 IS LESS THAN RESIDUAL WATER CONTENT-- SETTING EXTINCTION WATER CONTENT EQUAL TO RESIDUAL WATER CONTENT

EXTINCTION WATER CONTENT FOR CELL AT ROW     4, COLUMN     4 IS LESS THAN RESIDUAL WATER CONTENT-- SETTING EXTINCTION WATER CONTENT EQUAL TO RESIDUAL WATER CONTENT

EXTINCTION WATER CONTENT FOR CELL AT ROW     4, COLUMN     5 IS LESS THAN RESIDUAL WATER CONTENT-- SETTING EXTINCTION WATER CONTENT EQUAL TO RESIDUAL WATER CONTENT

EXTINCTION WATER CONTENT FOR CELL AT ROW     4, COLUMN     6 IS LESS THAN RESIDUAL WATER CONTENT-- SETTING EXTINCTION WATER CONTENT EQUAL TO RESIDUAL WATER CONTENT

EXTINCTION WATER CONTENT FOR CELL AT ROW     4, COLUMN     7 IS LESS THAN RESIDUAL WATER CONTENT-- SETTING EXTINCTION WATER CONTENT EQUAL TO RESIDUAL WATER CONTENT

EXTINCTION WATER CONTENT FOR CELL AT ROW     4, COLUMN     8 IS LESS THAN RESIDUAL WATER CONTENT-- SETTING EXTINCTION WATER CONTENT EQUAL TO RESIDUAL WATER CONTENT

EXTINCTION WATER CONTENT FOR CELL AT ROW     4, COLUMN     9 IS LESS THAN RESIDUAL WATER CONTENT-- SETTING EXTINCTION WATER CONTENT EQUAL TO RESIDUAL WATER CONTENT

EXTINCTION WATER CONTENT FOR CELL AT ROW     5, COLUMN     1 IS LESS THAN RESIDUAL WATER CONTENT-- SETTING EXTINCTION WATER CONTENT EQUAL TO RESIDUAL WATER CONTENT

EXTINCTION WATER CONTENT FOR CELL AT ROW     5, COLUMN     2 IS LESS THAN RESIDUAL WATER CONTENT-- SETTING EXTINCTION WATER CONTENT EQUAL TO RESIDUAL WATER CONTENT

EXTINCTION WATER CONTENT FOR CELL AT ROW     5, COLUMN     3 IS LESS THAN RESIDUAL WATER CONTENT-- SETTING EXTINCTION WATER CONTENT EQUAL TO RESIDUAL WATER CONTENT

EXTINCTION WATER CONTENT FOR CELL AT ROW     5, COLUMN     4 IS LESS THAN RESIDUAL WATER CONTENT-- SETTING EXTINCTION WATER CONTENT EQUAL TO RESIDUAL WATER CONTENT

EXTINCTION WATER CONTENT FOR CELL AT ROW     5, COLUMN     5 IS LESS THAN RESIDUAL WATER CONTENT-- SETTING EXTINCTION WATER CONTENT EQUAL TO RESIDUAL WATER CONTENT

EXTINCTION WATER CONTENT FOR CELL AT ROW     5, COLUMN     6 IS LESS THAN RESIDUAL WATER CONTENT-- SETTING EXTINCTION WATER CONTENT EQUAL TO RESIDUAL WATER CONTENT

EXTINCTION WATER CONTENT FOR CELL AT ROW     5, COLUMN     7 IS LESS THAN RESIDUAL WATER CONTENT-- SETTING EXTINCTION WATER CONTENT EQUAL TO RESIDUAL WATER CONTENT

EXTINCTION WATER CONTENT FOR CELL AT ROW     5, COLUMN     8 IS LESS THAN RESIDUAL WATER CONTENT-- SETTING EXTINCTION WATER CONTENT EQUAL TO RESIDUAL WATER CONTENT

EXTINCTION WATER CONTENT FOR CELL AT ROW     5, COLUMN     9 IS LESS THAN RESIDUAL WATER CONTENT-- SETTING EXTINCTION WATER CONTENT EQUAL TO RESIDUAL WATER CONTENT

EXTINCTION WATER CONTENT FOR CELL AT ROW     5, COLUMN    10 IS LESS THAN RESIDUAL WATER CONTENT-- SETTING EXTINCTION WATER CONTENT EQUAL TO RESIDUAL WATER CONTENT

EXTINCTION WATER CONTENT FOR CELL AT ROW     6, COLUMN     1 IS LESS THAN RESIDUAL WATER CONTENT-- SETTING EXTINCTION WATER CONTENT EQUAL TO RESIDUAL WATER CONTENT

EXTINCTION WATER CONTENT FOR CELL AT ROW     6, COLUMN     2 IS LESS THAN RESIDUAL WATER CONTENT-- SETTING EXTINCTION WATER CONTENT EQUAL TO RESIDUAL WATER CONTENT

EXTINCTION WATER CONTENT FOR CELL AT ROW     6, COLUMN     3 IS LESS THAN RESIDUAL WATER CONTENT-- SETTING EXTINCTION WATER CONTENT EQUAL TO RESIDUAL WATER CONTENT

EXTINCTION WATER CONTENT FOR CELL AT ROW     6, COLUMN     4 IS LESS THAN RESIDUAL WATER CONTENT-- SETTING EXTINCTION WATER CONTENT EQUAL TO RESIDUAL WATER CONTENT

EXTINCTION WATER CONTENT FOR CELL AT ROW     6, COLUMN     5 IS LESS THAN RESIDUAL WATER CONTENT-- SETTING EXTINCTION WATER CONTENT EQUAL TO RESIDUAL WATER CONTENT

EXTINCTION WATER CONTENT FOR CELL AT ROW     6, COLUMN     6 IS LESS THAN RESIDUAL WATER CONTENT-- SETTING EXTINCTION WATER CONTENT EQUAL TO RESIDUAL WATER CONTENT

EXTINCTION WATER CONTENT FOR CELL AT ROW     6, COLUMN     7 IS LESS THAN RESIDUAL WATER CONTENT-- SETTING EXTINCTION WATER CONTENT EQUAL TO RESIDUAL WATER CONTENT

EXTINCTION WATER CONTENT FOR CELL AT ROW     6, COLUMN     8 IS LESS THAN RESIDUAL WATER CONTENT-- SETTING EXTINCTION WATER CONTENT EQUAL TO RESIDUAL WATER CONTENT

EXTINCTION WATER CONTENT FOR CELL AT ROW     6, COLUMN     9 IS LESS THAN RESIDUAL WATER CONTENT-- SETTING EXTINCTION WATER CONTENT EQUAL TO RESIDUAL WATER CONTENT

EXTINCTION WATER CONTENT FOR CELL AT ROW     6, COLUMN    10 IS LESS THAN RESIDUAL WATER CONTENT-- SETTING EXTINCTION WATER CONTENT EQUAL TO RESIDUAL WATER CONTENT

EXTINCTION WATER CONTENT FOR CELL AT ROW     7, COLUMN     1 IS LESS THAN RESIDUAL WATER CONTENT-- SETTING EXTINCTION WATER CONTENT EQUAL TO RESIDUAL WATER CONTENT

EXTINCTION WATER CONTENT FOR CELL AT ROW     7, COLUMN     2 IS LESS THAN RESIDUAL WATER CONTENT-- SETTING EXTINCTION WATER CONTENT EQUAL TO RESIDUAL WATER CONTENT

EXTINCTION WATER CONTENT FOR CELL AT ROW     7, COLUMN     3 IS LESS THAN RESIDUAL WATER CONTENT-- SETTING EXTINCTION WATER CONTENT EQUAL TO RESIDUAL WATER CONTENT

EXTINCTION WATER CONTENT FOR CELL AT ROW     7, COLUMN     4 IS LESS THAN RESIDUAL WATER CONTENT-- SETTING EXTINCTION WATER CONTENT EQUAL TO RESIDUAL WATER CONTENT

EXTINCTION WATER CONTENT FOR CELL AT ROW     7, COLUMN     5 IS LESS THAN RESIDUAL WATER CONTENT-- SETTING EXTINCTION WATER CONTENT EQUAL TO RESIDUAL WATER CONTENT

EXTINCTION WATER CONTENT FOR CELL AT ROW     7, COLUMN     6 IS LESS THAN RESIDUAL WATER CONTENT-- SETTING EXTINCTION WATER CONTENT EQUAL TO RESIDUAL WATER CONTENT

EXTINCTION WATER CONTENT FOR CELL AT ROW     7, COLUMN     7 IS LESS THAN RESIDUAL WATER CONTENT-- SETTING EXTINCTION WATER CONTENT EQUAL TO RESIDUAL WATER CONTENT

EXTINCTION WATER CONTENT FOR CELL AT ROW     7, COLUMN     8 IS LESS THAN RESIDUAL WATER CONTENT-- SETTING EXTINCTION WATER CONTENT EQUAL TO RESIDUAL WATER CONTENT

EXTINCTION WATER CONTENT FOR CELL AT ROW     7, COLUMN     9 IS LESS THAN RESIDUAL WATER CONTENT-- SETTING EXTINCTION WATER CONTENT EQUAL TO RESIDUAL WATER CONTENT

EXTINCTION WATER CONTENT FOR CELL AT ROW     8, COLUMN     2 IS LESS THAN RESIDUAL WATER CONTENT-- SETTING EXTINCTION WATER CONTENT EQUAL TO RESIDUAL WATER CONTENT

EXTINCTION WATER CONTENT FOR CELL AT ROW     8, COLUMN     3 IS LESS THAN RESIDUAL WATER CONTENT-- SETTING EXTINCTION WATER CONTENT EQUAL TO RESIDUAL WATER CONTENT

EXTINCTION WATER CONTENT FOR CELL AT ROW     8, COLUMN     4 IS LESS THAN RESIDUAL WATER CONTENT-- SETTING EXTINCTION WATER CONTENT EQUAL TO RESIDUAL WATER CONTENT

EXTINCTION WATER CONTENT FOR CELL AT ROW     8, COLUMN     5 IS LESS THAN RESIDUAL WATER CONTENT-- SETTING EXTINCTION WATER CONTENT EQUAL TO RESIDUAL WATER CONTENT

EXTINCTION WATER CONTENT FOR CELL AT ROW     8, COLUMN     6 IS LESS THAN RESIDUAL WATER CONTENT-- SETTING EXTINCTION WATER CONTENT EQUAL TO RESIDUAL WATER CONTENT

EXTINCTION WATER CONTENT FOR CELL AT ROW     8, COLUMN     7 IS LESS THAN RESIDUAL WATER CONTENT-- SETTING EXTINCTION WATER CONTENT EQUAL TO RESIDUAL WATER CONTENT

EXTINCTION WATER CONTENT FOR CELL AT ROW     8, COLUMN     8 IS LESS THAN RESIDUAL WATER CONTENT-- SETTING EXTINCTION WATER CONTENT EQUAL TO RESIDUAL WATER CONTENT

EXTINCTION WATER CONTENT FOR CELL AT ROW     8, COLUMN     9 IS LESS THAN RESIDUAL WATER CONTENT-- SETTING EXTINCTION WATER CONTENT EQUAL TO RESIDUAL WATER CONTENT

EXTINCTION WATER CONTENT FOR CELL AT ROW     9, COLUMN     2 IS LESS THAN RESIDUAL WATER CONTENT-- SETTING EXTINCTION WATER CONTENT EQUAL TO RESIDUAL WATER CONTENT

EXTINCTION WATER CONTENT FOR CELL AT ROW     9, COLUMN     3 IS LESS THAN RESIDUAL WATER CONTENT-- SETTING EXTINCTION WATER CONTENT EQUAL TO RESIDUAL WATER CONTENT

EXTINCTION WATER CONTENT FOR CELL AT ROW     9, COLUMN     4 IS LESS THAN RESIDUAL WATER CONTENT-- SETTING EXTINCTION WATER CONTENT EQUAL TO RESIDUAL WATER CONTENT

EXTINCTION WATER CONTENT FOR CELL AT ROW     9, COLUMN     5 IS LESS THAN RESIDUAL WATER CONTENT-- SETTING EXTINCTION WATER CONTENT EQUAL TO RESIDUAL WATER CONTENT

EXTINCTION WATER CONTENT FOR CELL AT ROW     9, COLUMN     6 IS LESS THAN RESIDUAL WATER CONTENT-- SETTING EXTINCTION WATER CONTENT EQUAL TO RESIDUAL WATER CONTENT

EXTINCTION WATER CONTENT FOR CELL AT ROW     9, COLUMN     7 IS LESS THAN RESIDUAL WATER CONTENT-- SETTING EXTINCTION WATER CONTENT EQUAL TO RESIDUAL WATER CONTENT

EXTINCTION WATER CONTENT FOR CELL AT ROW     9, COLUMN     8 IS LESS THAN RESIDUAL WATER CONTENT-- SETTING EXTINCTION WATER CONTENT EQUAL TO RESIDUAL WATER CONTENT

EXTINCTION WATER CONTENT FOR CELL AT ROW     9, COLUMN     9 IS LESS THAN RESIDUAL WATER CONTENT-- SETTING EXTINCTION WATER CONTENT EQUAL TO RESIDUAL WATER CONTENT

EXTINCTION WATER CONTENT FOR CELL AT ROW    10, COLUMN     2 IS LESS THAN RESIDUAL WATER CONTENT-- SETTING EXTINCTION WATER CONTENT EQUAL TO RESIDUAL WATER CONTENT

EXTINCTION WATER CONTENT FOR CELL AT ROW    10, COLUMN     3 IS LESS THAN RESIDUAL WATER CONTENT-- SETTING EXTINCTION WATER CONTENT EQUAL TO RESIDUAL WATER CONTENT

EXTINCTION WATER CONTENT FOR CELL AT ROW    10, COLUMN     4 IS LESS THAN RESIDUAL WATER CONTENT-- SETTING EXTINCTION WATER CONTENT EQUAL TO RESIDUAL WATER CONTENT

EXTINCTION WATER CONTENT FOR CELL AT ROW    10, COLUMN     5 IS LESS THAN RESIDUAL WATER CONTENT-- SETTING EXTINCTION WATER CONTENT EQUAL TO RESIDUAL WATER CONTENT

EXTINCTION WATER CONTENT FOR CELL AT ROW    10, COLUMN     6 IS LESS THAN RESIDUAL WATER CONTENT-- SETTING EXTINCTION WATER CONTENT EQUAL TO RESIDUAL WATER CONTENT

EXTINCTION WATER CONTENT FOR CELL AT ROW    10, COLUMN     7 IS LESS THAN RESIDUAL WATER CONTENT-- SETTING EXTINCTION WATER CONTENT EQUAL TO RESIDUAL WATER CONTENT

EXTINCTION WATER CONTENT FOR CELL AT ROW    10, COLUMN     8 IS LESS THAN RESIDUAL WATER CONTENT-- SETTING EXTINCTION WATER CONTENT EQUAL TO RESIDUAL WATER CONTENT

EXTINCTION WATER CONTENT FOR CELL AT ROW    10, COLUMN     9 IS LESS THAN RESIDUAL WATER CONTENT-- SETTING EXTINCTION WATER CONTENT EQUAL TO RESIDUAL WATER CONTENT

EXTINCTION WATER CONTENT FOR CELL AT ROW    10, COLUMN    10 IS LESS THAN RESIDUAL WATER CONTENT-- SETTING EXTINCTION WATER CONTENT EQUAL TO RESIDUAL WATER CONTENT

EXTINCTION WATER CONTENT FOR CELL AT ROW    11, COLUMN     2 IS LESS THAN RESIDUAL WATER CONTENT-- SETTING EXTINCTION WATER CONTENT EQUAL TO RESIDUAL WATER CONTENT

EXTINCTION WATER CONTENT FOR CELL AT ROW    11, COLUMN     3 IS LESS THAN RESIDUAL WATER CONTENT-- SETTING EXTINCTION WATER CONTENT EQUAL TO RESIDUAL WATER CONTENT

EXTINCTION WATER CONTENT FOR CELL AT ROW    11, COLUMN     4 IS LESS THAN RESIDUAL WATER CONTENT-- SETTING EXTINCTION WATER CONTENT EQUAL TO RESIDUAL WATER CONTENT

EXTINCTION WATER CONTENT FOR CELL AT ROW    11, COLUMN     5 IS LESS THAN RESIDUAL WATER CONTENT-- SETTING EXTINCTION WATER CONTENT EQUAL TO RESIDUAL WATER CONTENT

EXTINCTION WATER CONTENT FOR CELL AT ROW    11, COLUMN     6 IS LESS THAN RESIDUAL WATER CONTENT-- SETTING EXTINCTION WATER CONTENT EQUAL TO RESIDUAL WATER CONTENT

EXTINCTION WATER CONTENT FOR CELL AT ROW    11, COLUMN     7 IS LESS THAN RESIDUAL WATER CONTENT-- SETTING EXTINCTION WATER CONTENT EQUAL TO RESIDUAL WATER CONTENT

EXTINCTION WATER CONTENT FOR CELL AT ROW    11, COLUMN     8 IS LESS THAN RESIDUAL WATER CONTENT-- SETTING EXTINCTION WATER CONTENT EQUAL TO RESIDUAL WATER CONTENT

EXTINCTION WATER CONTENT FOR CELL AT ROW    11, COLUMN     9 IS LESS THAN RESIDUAL WATER CONTENT-- SETTING EXTINCTION WATER CONTENT EQUAL TO RESIDUAL WATER CONTENT

EXTINCTION WATER CONTENT FOR CELL AT ROW    12, COLUMN     1 IS LESS THAN RESIDUAL WATER CONTENT-- SETTING EXTINCTION WATER CONTENT EQUAL TO RESIDUAL WATER CONTENT

EXTINCTION WATER CONTENT FOR CELL AT ROW    12, COLUMN     2 IS LESS THAN RESIDUAL WATER CONTENT-- SETTING EXTINCTION WATER CONTENT EQUAL TO RESIDUAL WATER CONTENT

EXTINCTION WATER CONTENT FOR CELL AT ROW    12, COLUMN     3 IS LESS THAN RESIDUAL WATER CONTENT-- SETTING EXTINCTION WATER CONTENT EQUAL TO RESIDUAL WATER CONTENT

EXTINCTION WATER CONTENT FOR CELL AT ROW    12, COLUMN     4 IS LESS THAN RESIDUAL WATER CONTENT-- SETTING EXTINCTION WATER CONTENT EQUAL TO RESIDUAL WATER CONTENT

EXTINCTION WATER CONTENT FOR CELL AT ROW    12, COLUMN     5 IS LESS THAN RESIDUAL WATER CONTENT-- SETTING EXTINCTION WATER CONTENT EQUAL TO RESIDUAL WATER CONTENT

EXTINCTION WATER CONTENT FOR CELL AT ROW    12, COLUMN     6 IS LESS THAN RESIDUAL WATER CONTENT-- SETTING EXTINCTION WATER CONTENT EQUAL TO RESIDUAL WATER CONTENT

EXTINCTION WATER CONTENT FOR CELL AT ROW    12, COLUMN     7 IS LESS THAN RESIDUAL WATER CONTENT-- SETTING EXTINCTION WATER CONTENT EQUAL TO RESIDUAL WATER CONTENT

EXTINCTION WATER CONTENT FOR CELL AT ROW    12, COLUMN     8 IS LESS THAN RESIDUAL WATER CONTENT-- SETTING EXTINCTION WATER CONTENT EQUAL TO RESIDUAL WATER CONTENT

EXTINCTION WATER CONTENT FOR CELL AT ROW    12, COLUMN     9 IS LESS THAN RESIDUAL WATER CONTENT-- SETTING EXTINCTION WATER CONTENT EQUAL TO RESIDUAL WATER CONTENT

EXTINCTION WATER CONTENT FOR CELL AT ROW    13, COLUMN     1 IS LESS THAN RESIDUAL WATER CONTENT-- SETTING EXTINCTION WATER CONTENT EQUAL TO RESIDUAL WATER CONTENT

EXTINCTION WATER CONTENT FOR CELL AT ROW    13, COLUMN     2 IS LESS THAN RESIDUAL WATER CONTENT-- SETTING EXTINCTION WATER CONTENT EQUAL TO RESIDUAL WATER CONTENT

EXTINCTION WATER CONTENT FOR CELL AT ROW    13, COLUMN     3 IS LESS THAN RESIDUAL WATER CONTENT-- SETTING EXTINCTION WATER CONTENT EQUAL TO RESIDUAL WATER CONTENT

EXTINCTION WATER CONTENT FOR CELL AT ROW    13, COLUMN     4 IS LESS THAN RESIDUAL WATER CONTENT-- SETTING EXTINCTION WATER CONTENT EQUAL TO RESIDUAL WATER CONTENT

EXTINCTION WATER CONTENT FOR CELL AT ROW    13, COLUMN     5 IS LESS THAN RESIDUAL WATER CONTENT-- SETTING EXTINCTION WATER CONTENT EQUAL TO RESIDUAL WATER CONTENT

EXTINCTION WATER CONTENT FOR CELL AT ROW    13, COLUMN     6 IS LESS THAN RESIDUAL WATER CONTENT-- SETTING EXTINCTION WATER CONTENT EQUAL TO RESIDUAL WATER CONTENT

EXTINCTION WATER CONTENT FOR CELL AT ROW    13, COLUMN     7 IS LESS THAN RESIDUAL WATER CONTENT-- SETTING EXTINCTION WATER CONTENT EQUAL TO RESIDUAL WATER CONTENT

EXTINCTION WATER CONTENT FOR CELL AT ROW    13, COLUMN     8 IS LESS THAN RESIDUAL WATER CONTENT-- SETTING EXTINCTION WATER CONTENT EQUAL TO RESIDUAL WATER CONTENT

EXTINCTION WATER CONTENT FOR CELL AT ROW    13, COLUMN     9 IS LESS THAN RESIDUAL WATER CONTENT-- SETTING EXTINCTION WATER CONTENT EQUAL TO RESIDUAL WATER CONTENT

EXTINCTION WATER CONTENT FOR CELL AT ROW    14, COLUMN     2 IS LESS THAN RESIDUAL WATER CONTENT-- SETTING EXTINCTION WATER CONTENT EQUAL TO RESIDUAL WATER CONTENT

EXTINCTION WATER CONTENT FOR CELL AT ROW    14, COLUMN     3 IS LESS THAN RESIDUAL WATER CONTENT-- SETTING EXTINCTION WATER CONTENT EQUAL TO RESIDUAL WATER CONTENT

EXTINCTION WATER CONTENT FOR CELL AT ROW    14, COLUMN     4 IS LESS THAN RESIDUAL WATER CONTENT-- SETTING EXTINCTION WATER CONTENT EQUAL TO RESIDUAL WATER CONTENT

EXTINCTION WATER CONTENT FOR CELL AT ROW    14, COLUMN     5 IS LESS THAN RESIDUAL WATER CONTENT-- SETTING EXTINCTION WATER CONTENT EQUAL TO RESIDUAL WATER CONTENT

EXTINCTION WATER CONTENT FOR CELL AT ROW    14, COLUMN     6 IS LESS THAN RESIDUAL WATER CONTENT-- SETTING EXTINCTION WATER CONTENT EQUAL TO RESIDUAL WATER CONTENT

EXTINCTION WATER CONTENT FOR CELL AT ROW    14, COLUMN     7 IS LESS THAN RESIDUAL WATER CONTENT-- SETTING EXTINCTION WATER CONTENT EQUAL TO RESIDUAL WATER CONTENT

EXTINCTION WATER CONTENT FOR CELL AT ROW    14, COLUMN     8 IS LESS THAN RESIDUAL WATER CONTENT-- SETTING EXTINCTION WATER CONTENT EQUAL TO RESIDUAL WATER CONTENT

EXTINCTION WATER CONTENT FOR CELL AT ROW    14, COLUMN     9 IS LESS THAN RESIDUAL WATER CONTENT-- SETTING EXTINCTION WATER CONTENT EQUAL TO RESIDUAL WATER CONTENT

EXTINCTION WATER CONTENT FOR CELL AT ROW    15, COLUMN     3 IS LESS THAN RESIDUAL WATER CONTENT-- SETTING EXTINCTION WATER CONTENT EQUAL TO RESIDUAL WATER CONTENT

EXTINCTION WATER CONTENT FOR CELL AT ROW    15, COLUMN     4 IS LESS THAN RESIDUAL WATER CONTENT-- SETTING EXTINCTION WATER CONTENT EQUAL TO RESIDUAL WATER CONTENT

EXTINCTION WATER CONTENT FOR CELL AT ROW    15, COLUMN     5 IS LESS THAN RESIDUAL WATER CONTENT-- SETTING EXTINCTION WATER CONTENT EQUAL TO RESIDUAL WATER CONTENT

EXTINCTION WATER CONTENT FOR CELL AT ROW    15, COLUMN     6 IS LESS THAN RESIDUAL WATER CONTENT-- SETTING EXTINCTION WATER CONTENT EQUAL TO RESIDUAL WATER CONTENT

       AIR ENTRY PRESSURE = -0.100000    

            ROOT PRESSURE =  -30.0000    

            ROOT ACTIVITY =   1.00000    
 # AG well list

 PROCESSING WELL LIST

 LAYER   ROW   COL   MAX STRESS RATE         
 --------------------------------------------
      1      1      6      4     -0.1000E+05
      2      1      6      5     -0.1000E+05
      3      1      7      4     -0.1000E+05
      4      1      7      5     -0.1000E+05
      5      1      8      4     -0.1000E+05
      6      1      8      5     -0.1000E+05

 FINISHED READING WELL LIST

      6 WELLS

 PROCESSING AG STRESS PERIOD DATA
 # AG stress period

 READING AG STRESS PERIOD DATA

 READING IRRIGATION WELL

 END PROCESSING AG STRESS PERIOD DATA OPTIONS
 
 SOLVING FOR HEAD 
                                                   Max.-Head-Change                         Max.-Flux-Residual
  Residual-Control   Outer-Iter.   Inner-Iter.     Column Row Layer    Maximum-Head-Change  Column Row Layer    Maximum-Flux-Residual          L2-NORM 
          0                 1           6             2    2     1      -0.2729307464E+02       3    3    1        -0.3343270791E+01      0.9349602267E+01
          0                 2           6             1    1     1      -0.3190965431E+02       1   13    1        -0.1265339377E+03      0.1266532531E+03
          0                 3           6             1    1     1      -0.1572491758E+01       6   13    1        -0.2190257661E+01      0.4309170804E+01
          0                 4           5             5   13     1      -0.1413305767E+00       5   13    1        -0.2948450322E+00      0.3673593282E+00
          0                 5           4             5   14     1       0.3029532125E-01       5   13    1         0.1459713171E-01      0.2406408108E-01
          0                 6           2             5   14     1      -0.1189305026E-02       5   13    1        -0.5824503583E-03      0.1629880055E-02
          0                 7           1             5   14     1       0.1315585614E-04       7   10    1         0.2182523667E-04      0.6323665714E-04

    ------------------------------------------------
       NWT REQUIRED            7 OUTER ITERATIONS 
       AND A TOTAL OF         30 INNER ITERATIONS.
    ------------------------------------------------

 OUTPUT CONTROL FOR STRESS PERIOD    1   TIME STEP    1
    PRINT BUDGET
    SAVE BUDGET
    SAVE HEAD FOR ALL LAYERS
 UBDSV2 SAVING "   CONSTANT HEAD" ON UNIT 102 AT TIME STEP  1, STRESS PERIOD   1
 UBDSV1 SAVING "FLOW RIGHT FACE " ON UNIT 102 AT TIME STEP  1, STRESS PERIOD   1
 UBDSV1 SAVING "FLOW FRONT FACE " ON UNIT 102 AT TIME STEP  1, STRESS PERIOD   1

  HEAD DEP BOUNDS   PERIOD    1   STEP     1
 BOUNDARY      1   LAYER   1   ROW    13   COL     1   RATE   -0.287309    
 BOUNDARY      2   LAYER   1   ROW    14   COL     9   RATE    0.285356    



 STREAM LISTING     PERIOD      1   STEP        1

 LAYER ROW COL. STREAM  RCH.  FLOW INTO     FLOW TO   FLOW OUT OF   OVRLND.     DIRECT     STREAM       STREAM     STREAM     STREAM   STREAMBED  STREAMBED
                SEG.NO.  NO.  STRM. RCH.    AQUIFER    STRM. RCH.    RUNOFF     PRECIP       ET          HEAD       DEPTH      WIDTH   CONDCTNC.   GRADIENT

   1    1    1     1     1    5.0000E+00  9.9080E-02   4.9009E+00  0.000E+00  0.000E+00  0.000E+00  1.09378E+03  7.365E-01  5.893E+00  2.652E-02  1.246E+00
   1    2    2     1     2    4.9009E+00  1.5199E-01   4.7489E+00  0.000E+00  0.000E+00  0.000E+00  1.08879E+03  7.320E-01  5.818E+00  4.072E-02  1.244E+00
   1    3    3     1     3    4.7489E+00  1.2820E-01   4.6207E+00  0.000E+00  0.000E+00  0.000E+00  1.08315E+03  7.269E-01  5.733E+00  3.440E-02  1.242E+00
   1    3    4     1     4    4.6207E+00  1.1689E-01   4.5038E+00  0.000E+00  0.000E+00  0.000E+00  1.07813E+03  7.223E-01  5.658E+00  3.140E-02  1.241E+00
   1    4    5     2     1    2.5038E+00  2.5694E-01   2.2469E+00  0.000E+00  0.000E+00  0.000E+00  1.07223E+03  2.942E-01  1.200E+01  7.800E-02  1.098E+00
   1    5    6     2     2    2.2469E+00  1.9662E-01   2.0503E+00  0.000E+00  0.000E+00  0.000E+00  1.06679E+03  2.770E-01  1.200E+01  6.000E-02  1.092E+00
   1    6    6     2     3    2.0503E+00  1.9569E-01   1.8546E+00  0.000E+00  0.000E+00  0.000E+00  1.06205E+03  2.615E-01  1.200E+01  6.000E-02  1.087E+00
   1    7    6     2     4    1.8546E+00  1.9473E-01   1.6599E+00  0.000E+00  0.000E+00  0.000E+00  1.05732E+03  2.455E-01  1.200E+01  6.000E-02  1.082E+00
   1    8    6     2     5    1.6599E+00  1.9373E-01   1.4661E+00  0.000E+00  0.000E+00  0.000E+00  1.05259E+03  2.288E-01  1.200E+01  6.000E-02  1.076E+00
   1    3    5     3     1    2.0000E+00  2.8252E-01   1.7175E+00  0.000E+00  0.000E+00  0.000E+00  1.07555E+03  1.909E+00  9.636E+00  7.227E-02  1.955E+00
   1    3    6     3     2    1.7175E+00  2.4905E-01   1.4684E+00  0.000E+00  0.000E+00  0.000E+00  1.07264E+03  1.727E+00  8.909E+00  6.682E-02  1.864E+00
   1    3    7     3     3    1.4684E+00  1.9718E-01   1.2712E+00  0.000E+00  0.000E+00  0.000E+00  1.06987E+03  1.555E+00  8.218E+00  5.547E-02  1.777E+00
   1    4    8     3     4    1.2712E+00  2.2567E-01   1.0456E+00  0.000E+00  0.000E+00  0.000E+00  1.06682E+03  1.364E+00  7.455E+00  6.709E-02  1.682E+00
   1    5    8     3     5    1.0456E+00  1.5790E-01   8.8768E-01  0.000E+00  0.000E+00  0.000E+00  1.06362E+03  1.164E+00  6.655E+00  4.991E-02  1.582E+00
   1    6    8     3     6    8.8768E-01  5.5980E-02   8.3170E-01  0.000E+00  0.000E+00  0.000E+00  1.06158E+03  1.036E+00  6.145E+00  1.844E-02  1.518E+00
   1    5   10     4     1    1.0000E+01  9.0919E-02   9.9091E+00  0.000E+00  0.000E+00  0.000E+00  1.07836E+03  6.368E-01  1.000E+01  2.500E-02  1.212E+00
   1    5    9     4     2    9.9091E+00  1.8158E-01   9.7275E+00  0.000E+00  0.000E+00  0.000E+00  1.07154E+03  6.315E-01  1.000E+01  5.000E-02  1.211E+00
   1    6    8     4     3    9.7275E+00  1.2689E-01   9.6006E+00  0.000E+00  0.000E+00  0.000E+00  1.06381E+03  6.256E-01  1.000E+01  3.500E-02  1.209E+00
   1    6    8     5     1    1.0432E+01  2.2686E-01   1.0205E+01  0.000E+00  0.000E+00  0.000E+00  1.05868E+03  6.790E-01  1.542E+01  6.166E-02  1.226E+00
   1    7    7     5     2    1.0205E+01  2.7894E-01   9.9265E+00  0.000E+00  0.000E+00  0.000E+00  1.05417E+03  6.732E-01  1.519E+01  7.594E-02  1.224E+00
   1    8    7     5     3    9.9265E+00  1.9221E-01   9.7343E+00  0.000E+00  0.000E+00  0.000E+00  1.04992E+03  6.676E-01  1.497E+01  5.241E-02  1.223E+00
   1    8    6     5     4    9.7343E+00  1.3577E-01   9.5985E+00  0.000E+00  0.000E+00  0.000E+00  1.04691E+03  6.637E-01  1.482E+01  3.706E-02  1.221E+00
   1    9    6     6     1    1.1065E+01  2.2465E-01   1.0840E+01  0.000E+00  0.000E+00  0.000E+00  1.04347E+03  7.442E-01  1.200E+01  6.000E-02  1.248E+00
   1   10    7     6     2    1.0840E+01  2.2410E-01   1.0616E+01  0.000E+00  0.000E+00  0.000E+00  1.03892E+03  7.350E-01  1.200E+01  6.000E-02  1.245E+00
   1   11    7     6     3    1.0616E+01  2.2354E-01   1.0392E+01  0.000E+00  0.000E+00  0.000E+00  1.03436E+03  7.257E-01  1.200E+01  6.000E-02  1.242E+00
   1   12    7     6     4    1.0392E+01  2.2299E-01   1.0169E+01  0.000E+00  0.000E+00  0.000E+00  1.02981E+03  7.165E-01  1.200E+01  6.000E-02  1.239E+00
   1   13    7     6     5    1.0169E+01 -1.0974E-01   1.0279E+01  0.000E+00  0.000E+00  0.000E+00  1.02662E+03  7.141E-01  1.200E+01  2.400E-01 -1.524E-01
   1   14    9     7     1    1.5000E+02  1.3299E+00   1.4867E+02  0.000E+00  0.000E+00  0.000E+00  1.03987E+03  2.288E+00  5.529E+01  5.593E-01  7.926E-01
   1   13    8     7     2    1.4867E+02  1.8245E+00   1.4685E+02  0.000E+00  0.000E+00  0.000E+00  1.03478E+03  2.279E+00  5.526E+01  6.148E-01  9.892E-01
   1   13    7     7     3    1.4685E+02  1.4573E+00   1.4539E+02  0.000E+00  0.000E+00  0.000E+00  1.02969E+03  2.271E+00  5.522E+01  5.585E-01  8.698E-01
   1   13    6     8     1    1.5567E+02  8.1890E-01   1.5485E+02  0.000E+00  0.000E+00  0.000E+00  1.02473E+03  2.853E+00  4.138E+01  4.216E-01  6.474E-01
   1   13    5     8     2    1.5485E+02  9.0639E-02   1.5476E+02  0.000E+00  0.000E+00  0.000E+00  1.01848E+03  2.850E+00  4.133E+01  4.212E-01  7.174E-02
   1   13    4     8     3    1.5476E+02 -2.7168E+00   1.5747E+02  0.000E+00  0.000E+00  0.000E+00  1.01223E+03  2.859E+00  4.146E+01  4.225E+00 -2.143E-01
   1   13    3     8     4    1.5747E+02 -3.7756E+00   1.6125E+02  0.000E+00  0.000E+00  0.000E+00  1.00601E+03  2.882E+00  4.178E+01  4.258E+00 -2.956E-01
   1   13    2     8     5    1.6125E+02 -2.6098E+00   1.6386E+02  0.000E+00  0.000E+00  0.000E+00  9.99778E+02  2.903E+00  4.209E+01  4.290E+00 -2.028E-01
   1   13    1     8     6    1.6386E+02 -1.9855E+00   1.6585E+02  0.000E+00  0.000E+00  0.000E+00  9.94793E+02  2.918E+00  4.232E+01  2.587E+00 -2.558E-01



 UBDSV3 SAVING "           GW ET" ON UNIT  61 AT TIME STEP  1, STRESS PERIOD   1
 UBDSV3 SAVING "    UZF RECHARGE" ON UNIT  61 AT TIME STEP  1, STRESS PERIOD   1
 UBDSV3 SAVING " SURFACE LEAKAGE" ON UNIT  61 AT TIME STEP  1, STRESS PERIOD   1
 UBDSV3 SAVING "       HORT+DUNN" ON UNIT  61 AT TIME STEP  1, STRESS PERIOD   1
 UBDSV3 SAVING "  STORAGE CHANGE" ON UNIT  61 AT TIME STEP  1, STRESS PERIOD   1


UNSATURATED ZONE PACKAGE VOLUMETRIC BUDGET FOR  TIME STEP     1 STRESS PERIOD    1
  ------------------------------------------------------------------------------



     CUMULATIVE VOLUMES      L**3       RATES FOR THIS TIME STEP      L**3/T
     ------------------                 ------------------------

           IN:                                      IN:
           ---                                      ---
        INFILTRATION =       73224.0000          INFILTRATION =           0.8475

          OUT:                                     OUT:
          ----                                     ----
              UZF ET =       0.0000E+00                UZF ET =       0.0000E+00
        UZF RECHARGE =       73224.0000          UZF RECHARGE =           0.8475

            IN - OUT =       0.0000E+00              IN - OUT =       0.0000E+00

          STORAGE:                                 STORAGE:
          --------                                 --------
      STORAGE CHANGE =       0.0000E+00        STORAGE CHANGE =       0.0000E+00

 PERCENT DISCREPANCY IS DIFFERENCE BETWEEN IN-OUT MINUS CHANGE IN STORAGE
 DIVIDED BY THE AVERAGE OF IN AND OUT TIMES 100

 PERCENT DISCREPANCY =           0.00     PERCENT DISCREPANCY =           0.00






 

            AG WELLS      PERIOD    1   STEP   1
 AG WELL      1   LAYER   1   ROW     6   COL     4   RATE     0.00000    
 AG WELL      2   LAYER   1   ROW     6   COL     5   RATE     0.00000    
 AG WELL      3   LAYER   1   ROW     7   COL     4   RATE     0.00000    
 AG WELL      4   LAYER   1   ROW     7   COL     5   RATE     0.00000    
 AG WELL      5   LAYER   1   ROW     8   COL     4   RATE     0.00000    
 AG WELL      6   LAYER   1   ROW     8   COL     5   RATE     0.00000    
 
 

        GW IRRIGATION     PERIOD    1   STEP   1
 
1
  VOLUMETRIC BUDGET FOR AGRICULTURAL FIELDS AT  END OF TIME STEP    1, STRESS PERIOD   1
  ------------------------------------------------------------------------------

     CUMULATIVE VOLUMES      L**3       RATES FOR THIS TIME STEP      L**3/T
     ------------------                 ------------------------

           IN:                                      IN:
           ---                                      ---
               AG WELLS  =           0.0000                 AG WELLS  =           0.0000
      DIVERSION SEGMENTS =           0.0000        DIVERSION SEGMENTS =           0.0000
           GW IRRIGATION =           0.0000             GW IRRIGATION =           0.0000
           SW IRRIGATION =           0.0000             SW IRRIGATION =           0.0000
        SYSTEM LOSSES GW =           0.0000          SYSTEM LOSSES GW =           0.0000
        SYSTEM LOSSES SW =           0.0000          SYSTEM LOSSES SW =           0.0000

                TOTAL IN =           0.0000                  TOTAL IN =           0.0000

          OUT:                                     OUT:
          ----                                     ----
               AG WELLS  =           0.0000                 AG WELLS  =           0.0000
      DIVERSION SEGMENTS =           0.0000        DIVERSION SEGMENTS =           0.0000
           GW IRRIGATION =           0.0000             GW IRRIGATION =           0.0000
           SW IRRIGATION =           0.0000             SW IRRIGATION =           0.0000
        SYSTEM LOSSES GW =           0.0000          SYSTEM LOSSES GW =           0.0000
        SYSTEM LOSSES SW =           0.0000          SYSTEM LOSSES SW =           0.0000

               TOTAL OUT =           0.0000                 TOTAL OUT =           0.0000

                IN - OUT =           0.0000                  IN - OUT =           0.0000

     PERCENT DISCREPANCY =           0.00         PERCENT DISCREPANCY =           0.00




 HEAD WILL BE SAVED ON UNIT   62 AT END OF TIME STEP    1, STRESS PERIOD    1
1
  VOLUMETRIC BUDGET FOR ENTIRE MODEL AT END OF TIME STEP    1, STRESS PERIOD   1
  ------------------------------------------------------------------------------

     CUMULATIVE VOLUMES      L**3       RATES FOR THIS TIME STEP      L**3/T
     ------------------                 ------------------------

           IN:                                      IN:
           ---                                      ---
             STORAGE     =           0.0000               STORAGE     =           0.0000
       CONSTANT HEAD     =           0.0000         CONSTANT HEAD     =           0.0000
     HEAD DEP BOUNDS     =       24654.7383       HEAD DEP BOUNDS     =           0.2854
      STREAM LEAKAGE     =      894399.3125        STREAM LEAKAGE     =          10.3518
        UZF RECHARGE     =       73223.9531          UZF RECHARGE     =           0.8475
               GW ET     =           0.0000                 GW ET     =           0.0000
     SURFACE LEAKAGE     =           0.0000       SURFACE LEAKAGE     =           0.0000
           AG WELLS      =           0.0000             AG WELLS      =           0.0000

                TOTAL IN =      992278.0000                  TOTAL IN =          11.4847

          OUT:                                     OUT:
          ----                                     ----
             STORAGE     =           0.0000               STORAGE     =           0.0000
       CONSTANT HEAD     =           0.0000         CONSTANT HEAD     =           0.0000
     HEAD DEP BOUNDS     =       24823.4590       HEAD DEP BOUNDS     =           0.2873
      STREAM LEAKAGE     =      967454.4375        STREAM LEAKAGE     =          11.1974
        UZF RECHARGE     =           0.0000          UZF RECHARGE     =           0.0000
               GW ET     =           0.0000                 GW ET     =           0.0000
     SURFACE LEAKAGE     =           0.0000       SURFACE LEAKAGE     =           0.0000
           AG WELLS      =           0.0000             AG WELLS      =           0.0000

               TOTAL OUT =      992277.8750                 TOTAL OUT =          11.4847

                IN - OUT =           0.1250                  IN - OUT =       9.5367E-07

     PERCENT DISCREPANCY =           0.00         PERCENT DISCREPANCY =           0.00






         TIME SUMMARY AT END OF TIME STEP    1 IN STRESS PERIOD    1
                    SECONDS     MINUTES      HOURS       DAYS        YEARS
                    -----------------------------------------------------------
   TIME STEP LENGTH  86400.      1440.0      24.000      1.0000     2.73785E-03
 STRESS PERIOD TIME  86400.      1440.0      24.000      1.0000     2.73785E-03
         TOTAL TIME  86400.      1440.0      24.000      1.0000     2.73785E-03
1
1
                            STRESS PERIOD NO.    2, LENGTH =   2630000.    
                            -----------------------------------------------

                              NUMBER OF TIME STEPS =    30

                               MULTIPLIER FOR DELT =     1.000

                            INITIAL TIME STEP SIZE =   87666.66    

 REUSING NON-PARAMETER GHB CELLS FROM LAST STRESS PERIOD

      2 GHB CELLS

 REUSING STREAM SEGMENT DATA FROM LAST STRESS PERIOD



            AREAL INFILTRATION RATE
 READING ON UNIT   19 WITH FORMAT: (FREE)              

            1           2           3           4           5           6           7           8           9          10
 ........................................................................................................................
   1   1.0000E-10  2.0000E-10   0.000       0.000       0.000       0.000       0.000       0.000       0.000       0.000    
   2   2.0000E-10  1.0000E-10  2.0000E-10   0.000       0.000      8.0000E-10  8.0000E-10  5.0000E-10   0.000       0.000    
   3    0.000      5.0000E-10  1.0000E-10  1.0000E-10  8.0000E-10  8.0000E-10  5.0000E-10  5.0000E-10   0.000       0.000    
   4   8.0000E-10  5.0000E-10  1.0000E-10  1.0000E-10  1.0000E-10  1.0000E-10  1.0000E-10  1.0000E-10  2.0000E-10   0.000    
   5   8.0000E-10  5.0000E-10  1.0000E-10  1.0000E-10  1.0000E-10  1.0000E-10  1.0000E-10  1.0000E-10  1.0000E-10  1.0000E-10
   6   8.0000E-10  5.0000E-10  5.0000E-10  2.0000E-10  2.0000E-10  1.0000E-10  1.0000E-10  1.0000E-10  1.0000E-10  5.0000E-10
   7   8.0000E-10  5.0000E-10  5.0000E-10  2.0000E-10  2.0000E-10  1.0000E-10  1.0000E-10  2.0000E-10  2.0000E-10   0.000    
   8    0.000      5.0000E-10  5.0000E-10  2.0000E-10  2.0000E-10  1.0000E-10  1.0000E-10  2.0000E-10  5.0000E-10   0.000    
   9    0.000      5.0000E-10  5.0000E-10  2.0000E-10  2.0000E-10  1.0000E-10  1.0000E-10  2.0000E-10  5.0000E-10   0.000    
  10    0.000      5.0000E-10  5.0000E-10  2.0000E-10  2.0000E-10  1.0000E-10  1.0000E-10  2.0000E-10  5.0000E-10  8.0000E-10
  11    0.000      1.0000E-10  1.0000E-10  1.0000E-10  1.0000E-10  1.0000E-10  1.0000E-10  2.0000E-10  5.0000E-10   0.000    
  12   1.0000E-10  1.0000E-10  1.0000E-10  1.0000E-10  1.0000E-10  1.0000E-10  1.0000E-10  1.0000E-10  2.0000E-10   0.000    
  13   1.0000E-10  1.0000E-10  2.0000E-10  2.0000E-10  2.0000E-10  2.0000E-10  2.0000E-10  1.0000E-10  1.0000E-10   0.000    
  14    0.000      2.0000E-10  5.0000E-10  5.0000E-10  5.0000E-10  5.0000E-10  5.0000E-10  2.0000E-10  1.0000E-10   0.000    
  15    0.000       0.000      8.0000E-10  8.0000E-10  8.0000E-10  8.0000E-10   0.000       0.000       0.000       0.000    

                  ET RATE =  5.000000E-10

 USING ET EXTINCTION DEPTH FROM PREVIOUS STRESS PERIOD. CURRENT PERIOD IS:       2

 USING EXTINCTION WATER CONTENT FROM PREVIOUS STRESS PERIOD. CURRENT PERIOD IS:       2

 USING AIR ENTRY PRESSURE FROM PREVIOUS STRESS PERIOD. CURRENT PERIOD IS:       2

 USING ROOT PRESSURE HEAD FROM PREVIOUS STRESS PERIOD. CURRENT PERIOD IS:       2

 USING ROOT ACTIVITY FROM PREVIOUS STRESS PERIOD. CURRENT PERIOD IS:       2

 PROCESSING AG STRESS PERIOD DATA

 READING AG STRESS PERIOD DATA

 READING IRRIGATION WELL

 END PROCESSING AG STRESS PERIOD DATA OPTIONS
 
 SOLVING FOR HEAD 
                                                   Max.-Head-Change                         Max.-Flux-Residual
  Residual-Control   Outer-Iter.   Inner-Iter.     Column Row Layer    Maximum-Head-Change  Column Row Layer    Maximum-Flux-Residual          L2-NORM 
          0                 1           2             4   13     1       0.6100925893E-02       4   13    1         0.3498422332E+00      0.7241929619E+00
          0                 2           2             4   13     1      -0.5804806769E-03       4   13    1        -0.3422456134E-01      0.7535226500E-01
          0                 3           1             4   13     1       0.3887810144E-04       4   13    1         0.2356749438E-02      0.5141582721E-02

    ------------------------------------------------
       NWT REQUIRED            3 OUTER ITERATIONS 
       AND A TOTAL OF          5 INNER ITERATIONS.
    ------------------------------------------------

 NO OUTPUT CONTROL FOR STRESS PERIOD    2   TIME STEP    1
 
 SOLVING FOR HEAD 
                                                   Max.-Head-Change                         Max.-Flux-Residual
  Residual-Control   Outer-Iter.   Inner-Iter.     Column Row Layer    Maximum-Head-Change  Column Row Layer    Maximum-Flux-Residual          L2-NORM 
          0                 1           2             2   13     1       0.5599479073E-02       4   13    1         0.3174806351E+00      0.6799971991E+00
          0                 2           2             4   13     1      -0.5333894286E-03       4   13    1        -0.3143040844E-01      0.6665920323E-01
          0                 3           1             4   13     1       0.3579450810E-04       4   13    1         0.2168587871E-02      0.4540732071E-02

    ------------------------------------------------
       NWT REQUIRED            3 OUTER ITERATIONS 
       AND A TOTAL OF          5 INNER ITERATIONS.
    ------------------------------------------------

 NO OUTPUT CONTROL FOR STRESS PERIOD    2   TIME STEP    2
 
 SOLVING FOR HEAD 
                                                   Max.-Head-Change                         Max.-Flux-Residual
  Residual-Control   Outer-Iter.   Inner-Iter.     Column Row Layer    Maximum-Head-Change  Column Row Layer    Maximum-Flux-Residual          L2-NORM 
          0                 1           2             2   13     1       0.5185893220E-02       2   13    1         0.2917490544E+00      0.6422042502E+00
          0                 2           2             4   13     1      -0.4838762654E-03       4   13    1        -0.2849620590E-01      0.6300660939E-01
          0                 3           1             4   13     1       0.3247010480E-04       4   13    1         0.1966036657E-02      0.4296601638E-02

    ------------------------------------------------
       NWT REQUIRED            3 OUTER ITERATIONS 
       AND A TOTAL OF          5 INNER ITERATIONS.
    ------------------------------------------------

 NO OUTPUT CONTROL FOR STRESS PERIOD    2   TIME STEP    3
 
 SOLVING FOR HEAD 
                                                   Max.-Head-Change                         Max.-Flux-Residual
  Residual-Control   Outer-Iter.   Inner-Iter.     Column Row Layer    Maximum-Head-Change  Column Row Layer    Maximum-Flux-Residual          L2-NORM 
          0                 1           2             2   13     1       0.4803152104E-02       2   13    1         0.2701872160E+00      0.6081804214E+00
          0                 2           2             2   13     1      -0.4473241206E-03       2   13    1        -0.2586613658E-01      0.5972373533E-01
          0                 3           1             4   13     1       0.2948075097E-04       4   13    1         0.1783938462E-02      0.4078813784E-02

    ------------------------------------------------
       NWT REQUIRED            3 OUTER ITERATIONS 
       AND A TOTAL OF          5 INNER ITERATIONS.
    ------------------------------------------------

 NO OUTPUT CONTROL FOR STRESS PERIOD    2   TIME STEP    4
 
 SOLVING FOR HEAD 
                                                   Max.-Head-Change                         Max.-Flux-Residual
  Residual-Control   Outer-Iter.   Inner-Iter.     Column Row Layer    Maximum-Head-Change  Column Row Layer    Maximum-Flux-Residual          L2-NORM 
          0                 1           2             2   13     1       0.4449056342E-02       2   13    1         0.2502404406E+00      0.5775483678E+00
          0                 2           2             2   13     1      -0.4144961520E-03       2   13    1        -0.2396508024E-01      0.5676895257E-01
          0                 3           1             4   13     1       0.2676661242E-04       4   13    1         0.1618675551E-02      0.3881544536E-02

    ------------------------------------------------
       NWT REQUIRED            3 OUTER ITERATIONS 
       AND A TOTAL OF          5 INNER ITERATIONS.
    ------------------------------------------------

 NO OUTPUT CONTROL FOR STRESS PERIOD    2   TIME STEP    5
 
 SOLVING FOR HEAD 
                                                   Max.-Head-Change                         Max.-Flux-Residual
  Residual-Control   Outer-Iter.   Inner-Iter.     Column Row Layer    Maximum-Head-Change  Column Row Layer    Maximum-Flux-Residual          L2-NORM 
          0                 1           2             2   13     1       0.4121424479E-02       2   13    1         0.2317856051E+00      0.5499867097E+00
          0                 2           2             2   13     1      -0.3840909662E-03       2   13    1        -0.2220443894E-01      0.5411202322E-01
          0                 3           1             2    2     1       0.2466198375E-04       4   13    1         0.1470823689E-02      0.3705677528E-02

    ------------------------------------------------
       NWT REQUIRED            3 OUTER ITERATIONS 
       AND A TOTAL OF          5 INNER ITERATIONS.
    ------------------------------------------------

 NO OUTPUT CONTROL FOR STRESS PERIOD    2   TIME STEP    6
 
 SOLVING FOR HEAD 
                                                   Max.-Head-Change                         Max.-Flux-Residual
  Residual-Control   Outer-Iter.   Inner-Iter.     Column Row Layer    Maximum-Head-Change  Column Row Layer    Maximum-Flux-Residual          L2-NORM 
          0                 1           2             2   13     1       0.3818219925E-02       2   13    1         0.2147077786E+00      0.5251893820E+00
          0                 2           2             2    2     1      -0.3594199037E-03       2   13    1        -0.2057523388E-01      0.5172365080E-01
          0                 3           1             2    2     1       0.2447515742E-04       2   13    1         0.1355088734E-02      0.3546506297E-02

    ------------------------------------------------
       NWT REQUIRED            3 OUTER ITERATIONS 
       AND A TOTAL OF          5 INNER ITERATIONS.
    ------------------------------------------------

 NO OUTPUT CONTROL FOR STRESS PERIOD    2   TIME STEP    7
 
 SOLVING FOR HEAD 
                                                   Max.-Head-Change                         Max.-Flux-Residual
  Residual-Control   Outer-Iter.   Inner-Iter.     Column Row Layer    Maximum-Head-Change  Column Row Layer    Maximum-Flux-Residual          L2-NORM 
          0                 1           2             2    2     1       0.3667085902E-02       2   13    1         0.1989111556E+00      0.5028818217E+00
          0                 2           2             2    2     1      -0.3567080460E-03       2    2    1        -0.1917041063E-01      0.4957532271E-01
          0                 3           1             2    2     1       0.2429048955E-04       2    2    1         0.1341928944E-02      0.3403801710E-02

    ------------------------------------------------
       NWT REQUIRED            3 OUTER ITERATIONS 
       AND A TOTAL OF          5 INNER ITERATIONS.
    ------------------------------------------------

 NO OUTPUT CONTROL FOR STRESS PERIOD    2   TIME STEP    8
 
 SOLVING FOR HEAD 
                                                   Max.-Head-Change                         Max.-Flux-Residual
  Residual-Control   Outer-Iter.   Inner-Iter.     Column Row Layer    Maximum-Head-Change  Column Row Layer    Maximum-Flux-Residual          L2-NORM 
          0                 1           2             2    2     1       0.3639701120E-02       2    2    1         0.1902627837E+00      0.4828029426E+00
          0                 2           2             2    2     1      -0.3540442415E-03       2    2    1        -0.1902631640E-01      0.4764117197E-01
          0                 3           1             2    2     1       0.2410909511E-04       2    2    1         0.1331842370E-02      0.3274953806E-02

    ------------------------------------------------
       NWT REQUIRED            3 OUTER ITERATIONS 
       AND A TOTAL OF          5 INNER ITERATIONS.
    ------------------------------------------------

 NO OUTPUT CONTROL FOR STRESS PERIOD    2   TIME STEP    9
 
 SOLVING FOR HEAD 
                                                   Max.-Head-Change                         Max.-Flux-Residual
  Residual-Control   Outer-Iter.   Inner-Iter.     Column Row Layer    Maximum-Head-Change  Column Row Layer    Maximum-Flux-Residual          L2-NORM 
          0                 1           2             2    2     1       0.3612629209E-02       2    2    1         0.1888383606E+00      0.4647319545E+00
          0                 2           2             2    2     1      -0.3514108715E-03       2    2    1        -0.1888387334E-01      0.4590301220E-01
          0                 3           1             2    2     1       0.2392977227E-04       2    2    1         0.1321871360E-02      0.3160308926E-02

    ------------------------------------------------
       NWT REQUIRED            3 OUTER ITERATIONS 
       AND A TOTAL OF          5 INNER ITERATIONS.
    ------------------------------------------------

 NO OUTPUT CONTROL FOR STRESS PERIOD    2   TIME STEP   10
 
 SOLVING FOR HEAD 
                                                   Max.-Head-Change                         Max.-Flux-Residual
  Residual-Control   Outer-Iter.   Inner-Iter.     Column Row Layer    Maximum-Head-Change  Column Row Layer    Maximum-Flux-Residual          L2-NORM 
          0                 1           2             2    2     1       0.3585951319E-02       2    2    1         0.1874347106E+00      0.4484533252E+00
          0                 2           2             2    2     1      -0.3488158285E-03       2    2    1        -0.1874350759E-01      0.4433733871E-01
          0                 3           1             2    2     1       0.2375305899E-04       2    2    1         0.1312045739E-02      0.3057689610E-02

    ------------------------------------------------
       NWT REQUIRED            3 OUTER ITERATIONS 
       AND A TOTAL OF          5 INNER ITERATIONS.
    ------------------------------------------------

 NO OUTPUT CONTROL FOR STRESS PERIOD    2   TIME STEP   11
 
 SOLVING FOR HEAD 
                                                   Max.-Head-Change                         Max.-Flux-Residual
  Residual-Control   Outer-Iter.   Inner-Iter.     Column Row Layer    Maximum-Head-Change  Column Row Layer    Maximum-Flux-Residual          L2-NORM 
          0                 1           2             2    2     1       0.3559571667E-02       2    2    1         0.1860468216E+00      0.4337721338E+00
          0                 2           2             2    2     1      -0.3462497965E-03       2    2    1        -0.1860471794E-01      0.4292428873E-01
          0                 3           1             2    2     1       0.2357832264E-04       2    2    1         0.1302330487E-02      0.2962679097E-02

    ------------------------------------------------
       NWT REQUIRED            3 OUTER ITERATIONS 
       AND A TOTAL OF          5 INNER ITERATIONS.
    ------------------------------------------------

 NO OUTPUT CONTROL FOR STRESS PERIOD    2   TIME STEP   12
 
 SOLVING FOR HEAD 
                                                   Max.-Head-Change                         Max.-Flux-Residual
  Residual-Control   Outer-Iter.   Inner-Iter.     Column Row Layer    Maximum-Head-Change  Column Row Layer    Maximum-Flux-Residual          L2-NORM 
          0                 1           2             2    2     1       0.3533663617E-02       2    2    1         0.1846837332E+00      0.4205338984E+00
          0                 2           2             2    2     1      -0.3437296391E-03       2    2    1        -0.1846840841E-01      0.4164974983E-01
          0                 3           1             2    2     1       0.2340670872E-04       2    2    1         0.1292788808E-02      0.2876734967E-02

    ------------------------------------------------
       NWT REQUIRED            3 OUTER ITERATIONS 
       AND A TOTAL OF          5 INNER ITERATIONS.
    ------------------------------------------------

 NO OUTPUT CONTROL FOR STRESS PERIOD    2   TIME STEP   13
 
 SOLVING FOR HEAD 
                                                   Max.-Head-Change                         Max.-Flux-Residual
  Residual-Control   Outer-Iter.   Inner-Iter.     Column Row Layer    Maximum-Head-Change  Column Row Layer    Maximum-Flux-Residual          L2-NORM 
          0                 1           2             2    2     1       0.3508043789E-02       2    2    1         0.1833358765E+00      0.4085705507E+00
          0                 2           2             2    2     1      -0.3412375176E-03       2    2    1        -0.1833362202E-01      0.4049870977E-01
          0                 3           1             2    2     1       0.2323700475E-04       2    2    1         0.1283353767E-02      0.2801725286E-02

    ------------------------------------------------
       NWT REQUIRED            3 OUTER ITERATIONS 
       AND A TOTAL OF          5 INNER ITERATIONS.
    ------------------------------------------------

 NO OUTPUT CONTROL FOR STRESS PERIOD    2   TIME STEP   14
 
 SOLVING FOR HEAD 
                                                   Max.-Head-Change                         Max.-Flux-Residual
  Residual-Control   Outer-Iter.   Inner-Iter.     Column Row Layer    Maximum-Head-Change  Column Row Layer    Maximum-Flux-Residual          L2-NORM 
          0                 1           2             2    2     1       0.3482793803E-02       2    2    1         0.1820075155E+00      0.3977362688E+00
          0                 2           2             2    2     1      -0.3387813724E-03       2    2    1        -0.1820078525E-01      0.3945485375E-01
          0                 3           1             2    2     1       0.2306975036E-04       2    2    1         0.1274055184E-02      0.2732583011E-02

    ------------------------------------------------
       NWT REQUIRED            3 OUTER ITERATIONS 
       AND A TOTAL OF          5 INNER ITERATIONS.
    ------------------------------------------------

 NO OUTPUT CONTROL FOR STRESS PERIOD    2   TIME STEP   15
 
 SOLVING FOR HEAD 
                                                   Max.-Head-Change                         Max.-Flux-Residual
  Residual-Control   Outer-Iter.   Inner-Iter.     Column Row Layer    Maximum-Head-Change  Column Row Layer    Maximum-Flux-Residual          L2-NORM 
          0                 1           2             2    2     1       0.3457907996E-02       2    2    1         0.1806983303E+00      0.3879265446E+00
          0                 2           2             2    2     1      -0.3363606523E-03       2    2    1        -0.1806986608E-01      0.3850824426E-01
          0                 3           1             2    2     1       0.2290490884E-04       2    2    1         0.1264890871E-02      0.2669507533E-02

    ------------------------------------------------
       NWT REQUIRED            3 OUTER ITERATIONS 
       AND A TOTAL OF          5 INNER ITERATIONS.
    ------------------------------------------------

 NO OUTPUT CONTROL FOR STRESS PERIOD    2   TIME STEP   16
 
 SOLVING FOR HEAD 
                                                   Max.-Head-Change                         Max.-Flux-Residual
  Residual-Control   Outer-Iter.   Inner-Iter.     Column Row Layer    Maximum-Head-Change  Column Row Layer    Maximum-Flux-Residual          L2-NORM 
          0                 1           2             2    2     1       0.3433380787E-02       2    2    1         0.1794080274E+00      0.3790056752E+00
          0                 2           2             2    2     1      -0.3339748135E-03       2    2    1        -0.1794083513E-01      0.3764782523E-01
          0                 3           1             2    2     1       0.2274244163E-04       2    2    1         0.1255858686E-02      0.2612090350E-02

    ------------------------------------------------
       NWT REQUIRED            3 OUTER ITERATIONS 
       AND A TOTAL OF          5 INNER ITERATIONS.
    ------------------------------------------------

 NO OUTPUT CONTROL FOR STRESS PERIOD    2   TIME STEP   17
 
 SOLVING FOR HEAD 
                                                   Max.-Head-Change                         Max.-Flux-Residual
  Residual-Control   Outer-Iter.   Inner-Iter.     Column Row Layer    Maximum-Head-Change  Column Row Layer    Maximum-Flux-Residual          L2-NORM 
          0                 1           2             2    2     1       0.3409205946E-02       2    2    1         0.1781363176E+00      0.3708958557E+00
          0                 2           2             2    2     1      -0.3316232523E-03       2    2    1        -0.1781366355E-01      0.3686567458E-01
          0                 3           1             2    2     1       0.2258230968E-04       2    2    1         0.1246956712E-02      0.2559779025E-02

    ------------------------------------------------
       NWT REQUIRED            3 OUTER ITERATIONS 
       AND A TOTAL OF          5 INNER ITERATIONS.
    ------------------------------------------------

 NO OUTPUT CONTROL FOR STRESS PERIOD    2   TIME STEP   18
 
 SOLVING FOR HEAD 
                                                   Max.-Head-Change                         Max.-Flux-Residual
  Residual-Control   Outer-Iter.   Inner-Iter.     Column Row Layer    Maximum-Head-Change  Column Row Layer    Maximum-Flux-Residual          L2-NORM 
          0                 1           2             2    2     1       0.3385290978E-02       2    2    1         0.1768783253E+00      0.3634936784E+00
          0                 2           2             2    2     1      -0.3292969681E-03       2    2    1        -0.1768786369E-01      0.3614917529E-01
          0                 3           1             2    2     1       0.2242389811E-04       2    2    1         0.1238150705E-02      0.2511079189E-02

    ------------------------------------------------
       NWT REQUIRED            3 OUTER ITERATIONS 
       AND A TOTAL OF          5 INNER ITERATIONS.
    ------------------------------------------------

 NO OUTPUT CONTROL FOR STRESS PERIOD    2   TIME STEP   19
 
 SOLVING FOR HEAD 
                                                   Max.-Head-Change                         Max.-Flux-Residual
  Residual-Control   Outer-Iter.   Inner-Iter.     Column Row Layer    Maximum-Head-Change  Column Row Layer    Maximum-Flux-Residual          L2-NORM 
          0                 1           2             2    2     1       0.3361718007E-02       2    2    1         0.1756383593E+00      0.3567228777E+00
          0                 2           2             2    2     1      -0.3270039516E-03       2    2    1        -0.1756386649E-01      0.3549538124E-01
          0                 3           1             2    2     1       0.2226775244E-04       2    2    1         0.1229470898E-02      0.2468447094E-02

    ------------------------------------------------
       NWT REQUIRED            3 OUTER ITERATIONS 
       AND A TOTAL OF          5 INNER ITERATIONS.
    ------------------------------------------------

 NO OUTPUT CONTROL FOR STRESS PERIOD    2   TIME STEP   20
 
 SOLVING FOR HEAD 
                                                   Max.-Head-Change                         Max.-Flux-Residual
  Residual-Control   Outer-Iter.   Inner-Iter.     Column Row Layer    Maximum-Head-Change  Column Row Layer    Maximum-Flux-Residual          L2-NORM 
          0                 1           2             2    2     1       0.3338481869E-02       2    2    1         0.1744161255E+00      0.3505175158E+00
          0                 2           2             2    2     1      -0.3247437000E-03       2    2    1        -0.1744164252E-01      0.3489431848E-01
          0                 3           1             2    2     1       0.2211383766E-04       2    2    1         0.1220915212E-02      0.2427769748E-02

    ------------------------------------------------
       NWT REQUIRED            3 OUTER ITERATIONS 
       AND A TOTAL OF          5 INNER ITERATIONS.
    ------------------------------------------------

 NO OUTPUT CONTROL FOR STRESS PERIOD    2   TIME STEP   21
 
 SOLVING FOR HEAD 
                                                   Max.-Head-Change                         Max.-Flux-Residual
  Residual-Control   Outer-Iter.   Inner-Iter.     Column Row Layer    Maximum-Head-Change  Column Row Layer    Maximum-Flux-Residual          L2-NORM 
          0                 1           2             2    2     1       0.3315576681E-02       2    2    1         0.1732113562E+00      0.3448125011E+00
          0                 2           2             2    2     1      -0.3225156414E-03       2    2    1        -0.1732116503E-01      0.3434206855E-01
          0                 3           1             2    2     1       0.2196211495E-04       2    2    1         0.1212481787E-02      0.2391346582E-02

    ------------------------------------------------
       NWT REQUIRED            3 OUTER ITERATIONS 
       AND A TOTAL OF          5 INNER ITERATIONS.
    ------------------------------------------------

 NO OUTPUT CONTROL FOR STRESS PERIOD    2   TIME STEP   22
 
 SOLVING FOR HEAD 
                                                   Max.-Head-Change                         Max.-Flux-Residual
  Residual-Control   Outer-Iter.   Inner-Iter.     Column Row Layer    Maximum-Head-Change  Column Row Layer    Maximum-Flux-Residual          L2-NORM 
          0                 1           2             2    2     1       0.3292997431E-02       2    2    1         0.1720237463E+00      0.3395513435E+00
          0                 2           2             2    2     1      -0.3203192874E-03       2    2    1        -0.1720240346E-01      0.3383121406E-01
          0                 3           1             2    2     1       0.2181255188E-04       2    2    1         0.1204168488E-02      0.2356659775E-02

    ------------------------------------------------
       NWT REQUIRED            3 OUTER ITERATIONS 
       AND A TOTAL OF          5 INNER ITERATIONS.
    ------------------------------------------------

 NO OUTPUT CONTROL FOR STRESS PERIOD    2   TIME STEP   23
 
 SOLVING FOR HEAD 
                                                   Max.-Head-Change                         Max.-Flux-Residual
  Residual-Control   Outer-Iter.   Inner-Iter.     Column Row Layer    Maximum-Head-Change  Column Row Layer    Maximum-Flux-Residual          L2-NORM 
          0                 1           2             2    2     1       0.3270656597E-02       2    2    1         0.1708487174E+00      0.3346880971E+00
          0                 2           2             2    2     1      -0.3181461255E-03       2    2    1        -0.1708490004E-01      0.3335825067E-01
          0                 3           1             2    2     1       0.2166456742E-04       2    2    1         0.1195943243E-02      0.2324961194E-02

    ------------------------------------------------
       NWT REQUIRED            3 OUTER ITERATIONS 
       AND A TOTAL OF          5 INNER ITERATIONS.
    ------------------------------------------------

 NO OUTPUT CONTROL FOR STRESS PERIOD    2   TIME STEP   24
 
 SOLVING FOR HEAD 
                                                   Max.-Head-Change                         Max.-Flux-Residual
  Residual-Control   Outer-Iter.   Inner-Iter.     Column Row Layer    Maximum-Head-Change  Column Row Layer    Maximum-Flux-Residual          L2-NORM 
          0                 1           2             2    2     1       0.3248714847E-02       2    2    1         0.1696946871E+00      0.3301815247E+00
          0                 2           2             2    2     1      -0.3160117836E-03       2    2    1        -0.1696949649E-01      0.3291995521E-01
          0                 3           1             2    2     1       0.2151922636E-04       2    2    1         0.1187865000E-02      0.2295267572E-02

    ------------------------------------------------
       NWT REQUIRED            3 OUTER ITERATIONS 
       AND A TOTAL OF          5 INNER ITERATIONS.
    ------------------------------------------------

 NO OUTPUT CONTROL FOR STRESS PERIOD    2   TIME STEP   25
 
 SOLVING FOR HEAD 
                                                   Max.-Head-Change                         Max.-Flux-Residual
  Residual-Control   Outer-Iter.   Inner-Iter.     Column Row Layer    Maximum-Head-Change  Column Row Layer    Maximum-Flux-Residual          L2-NORM 
          0                 1           2             2    2     1       0.3226996318E-02       2    2    1         0.1685524774E+00      0.3259931253E+00
          0                 2           2             2    2     1      -0.3138991551E-03       2    2    1        -0.1685527501E-01      0.3251197008E-01
          0                 3           1             2    2     1       0.2137536428E-04       2    2    1         0.1179869492E-02      0.2267911788E-02

    ------------------------------------------------
       NWT REQUIRED            3 OUTER ITERATIONS 
       AND A TOTAL OF          5 INNER ITERATIONS.
    ------------------------------------------------

 NO OUTPUT CONTROL FOR STRESS PERIOD    2   TIME STEP   26
 
 SOLVING FOR HEAD 
                                                   Max.-Head-Change                         Max.-Flux-Residual
  Residual-Control   Outer-Iter.   Inner-Iter.     Column Row Layer    Maximum-Head-Change  Column Row Layer    Maximum-Flux-Residual          L2-NORM 
          0                 1           2             2    2     1       0.3205584551E-02       2    2    1         0.1674263944E+00      0.3220845827E+00
          0                 2           2             2    2     1      -0.3118163661E-03       2    2    1        -0.1674266619E-01      0.3213041842E-01
          0                 3           1             2    2     1       0.2123353474E-04       2    2    1         0.1171986875E-02      0.2242064273E-02

    ------------------------------------------------
       NWT REQUIRED            3 OUTER ITERATIONS 
       AND A TOTAL OF          5 INNER ITERATIONS.
    ------------------------------------------------

 NO OUTPUT CONTROL FOR STRESS PERIOD    2   TIME STEP   27
 
 SOLVING FOR HEAD 
                                                   Max.-Head-Change                         Max.-Flux-Residual
  Residual-Control   Outer-Iter.   Inner-Iter.     Column Row Layer    Maximum-Head-Change  Column Row Layer    Maximum-Flux-Residual          L2-NORM 
          0                 1           2             2    2     1       0.3184474142E-02       2    2    1         0.1663162167E+00      0.3184308763E+00
          0                 2           2             2    2     1      -0.3097628919E-03       2    2    1        -0.1663164794E-01      0.3177365961E-01
          0                 3           1             2    2     1       0.2109370060E-04       2    2    1         0.1164215607E-02      0.2217187724E-02

    ------------------------------------------------
       NWT REQUIRED            3 OUTER ITERATIONS 
       AND A TOTAL OF          5 INNER ITERATIONS.
    ------------------------------------------------

 NO OUTPUT CONTROL FOR STRESS PERIOD    2   TIME STEP   28
 
 SOLVING FOR HEAD 
                                                   Max.-Head-Change                         Max.-Flux-Residual
  Residual-Control   Outer-Iter.   Inner-Iter.     Column Row Layer    Maximum-Head-Change  Column Row Layer    Maximum-Flux-Residual          L2-NORM 
          0                 1           2             2    2     1       0.3163660653E-02       2    2    1         0.1652216641E+00      0.3150072716E+00
          0                 2           2             2    2     1      -0.3077383002E-03       2    2    1        -0.1652219222E-01      0.3143879466E-01
          0                 3           1             2    2     1       0.2095583392E-04       2    2    1         0.1156553728E-02      0.2194989560E-02

    ------------------------------------------------
       NWT REQUIRED            3 OUTER ITERATIONS 
       AND A TOTAL OF          5 INNER ITERATIONS.
    ------------------------------------------------

 NO OUTPUT CONTROL FOR STRESS PERIOD    2   TIME STEP   29
 
 SOLVING FOR HEAD 
                                                   Max.-Head-Change                         Max.-Flux-Residual
  Residual-Control   Outer-Iter.   Inner-Iter.     Column Row Layer    Maximum-Head-Change  Column Row Layer    Maximum-Flux-Residual          L2-NORM 
          0                 1           2             2    2     1       0.3143052544E-02       2    2    1         0.1641379530E+00      0.3117835503E+00
          0                 2           2             2    2     1      -0.3057336851E-03       2    2    1        -0.1641382062E-01      0.3112277354E-01
          0                 3           1             2    2     1       0.2081932646E-04       2    2    1         0.1148967674E-02      0.2173504787E-02

    ------------------------------------------------
       NWT REQUIRED            3 OUTER ITERATIONS 
       AND A TOTAL OF          5 INNER ITERATIONS.
    ------------------------------------------------

 NO OUTPUT CONTROL FOR STRESS PERIOD    2   TIME STEP   30



 STREAM LISTING     PERIOD      2   STEP       30

 LAYER ROW COL. STREAM  RCH.  FLOW INTO     FLOW TO   FLOW OUT OF   OVRLND.     DIRECT     STREAM       STREAM     STREAM     STREAM   STREAMBED  STREAMBED
                SEG.NO.  NO.  STRM. RCH.    AQUIFER    STRM. RCH.    RUNOFF     PRECIP       ET          HEAD       DEPTH      WIDTH   CONDCTNC.   GRADIENT

   1    1    1     1     1    2.2000E+01  2.3088E-01   2.1769E+01  0.000E+00  0.000E+00  0.000E+00  1.09418E+03  1.132E+00  1.242E+01  5.588E-02  1.377E+00
   1    2    2     1     2    2.1769E+01  3.5689E-01   2.1412E+01  0.000E+00  0.000E+00  0.000E+00  1.08919E+03  1.127E+00  1.235E+01  8.648E-02  1.376E+00
   1    3    3     1     3    2.1412E+01  3.0372E-01   2.1109E+01  0.000E+00  0.000E+00  0.000E+00  1.08354E+03  1.121E+00  1.228E+01  7.369E-02  1.374E+00
   1    3    4     1     4    2.1109E+01  2.7914E-01   2.0829E+01  0.000E+00  0.000E+00  0.000E+00  1.07852E+03  1.117E+00  1.222E+01  6.781E-02  1.372E+00
   1    4    5     2     1    1.8829E+01  3.1306E-01   1.8516E+01  0.000E+00  0.000E+00  0.000E+00  1.07295E+03  1.014E+00  1.200E+01  7.800E-02  1.338E+00
   1    5    6     2     2    1.8516E+01  2.4027E-01   1.8276E+01  0.000E+00  0.000E+00  0.000E+00  1.06751E+03  1.005E+00  1.200E+01  6.000E-02  1.335E+00
   1    6    6     2     3    1.8276E+01  2.3980E-01   1.8036E+01  0.000E+00  0.000E+00  0.000E+00  1.06279E+03  9.967E-01  1.200E+01  6.000E-02  1.332E+00
   1    7    6     2     4    1.8036E+01  2.3933E-01   1.7797E+01  0.000E+00  0.000E+00  0.000E+00  1.05806E+03  9.888E-01  1.200E+01  6.000E-02  1.330E+00
   1    8    6     2     5    1.7797E+01  2.3885E-01   1.7558E+01  0.000E+00  0.000E+00  0.000E+00  1.05334E+03  9.808E-01  1.200E+01  6.000E-02  1.327E+00
   1    3    5     3     1    2.0000E+00  2.8252E-01   1.7175E+00  0.000E+00  0.000E+00  0.000E+00  1.07555E+03  1.909E+00  9.636E+00  7.227E-02  1.955E+00
   1    3    6     3     2    1.7175E+00  2.4905E-01   1.4684E+00  0.000E+00  0.000E+00  0.000E+00  1.07264E+03  1.727E+00  8.909E+00  6.682E-02  1.864E+00
   1    3    7     3     3    1.4684E+00  1.9718E-01   1.2712E+00  0.000E+00  0.000E+00  0.000E+00  1.06987E+03  1.555E+00  8.218E+00  5.547E-02  1.777E+00
   1    4    8     3     4    1.2712E+00  2.2567E-01   1.0456E+00  0.000E+00  0.000E+00  0.000E+00  1.06682E+03  1.364E+00  7.455E+00  6.709E-02  1.682E+00
   1    5    8     3     5    1.0456E+00  1.5790E-01   8.8768E-01  0.000E+00  0.000E+00  0.000E+00  1.06362E+03  1.164E+00  6.655E+00  4.991E-02  1.582E+00
   1    6    8     3     6    8.8768E-01  5.5980E-02   8.3170E-01  0.000E+00  0.000E+00  0.000E+00  1.06158E+03  1.036E+00  6.145E+00  1.844E-02  1.518E+00
   1    5   10     4     1    1.0000E+01  9.0919E-02   9.9091E+00  0.000E+00  0.000E+00  0.000E+00  1.07836E+03  6.368E-01  1.000E+01  2.500E-02  1.212E+00
   1    5    9     4     2    9.9091E+00  1.8158E-01   9.7275E+00  0.000E+00  0.000E+00  0.000E+00  1.07154E+03  6.315E-01  1.000E+01  5.000E-02  1.211E+00
   1    6    8     4     3    9.7275E+00  1.2689E-01   9.6006E+00  0.000E+00  0.000E+00  0.000E+00  1.06381E+03  6.256E-01  1.000E+01  3.500E-02  1.209E+00
   1    6    8     5     1    1.0432E+01  2.2686E-01   1.0205E+01  0.000E+00  0.000E+00  0.000E+00  1.05868E+03  6.790E-01  1.542E+01  6.166E-02  1.226E+00
   1    7    7     5     2    1.0205E+01  2.7894E-01   9.9265E+00  0.000E+00  0.000E+00  0.000E+00  1.05417E+03  6.732E-01  1.519E+01  7.594E-02  1.224E+00
   1    8    7     5     3    9.9265E+00  1.9221E-01   9.7343E+00  0.000E+00  0.000E+00  0.000E+00  1.04992E+03  6.676E-01  1.497E+01  5.241E-02  1.223E+00
   1    8    6     5     4    9.7343E+00  1.3577E-01   9.5985E+00  0.000E+00  0.000E+00  0.000E+00  1.04691E+03  6.637E-01  1.482E+01  3.706E-02  1.221E+00
   1    9    6     6     1    2.7157E+01  2.5677E-01   2.6900E+01  0.000E+00  0.000E+00  0.000E+00  1.04401E+03  1.280E+00  1.200E+01  6.000E-02  1.427E+00
   1   10    7     6     2    2.6900E+01  2.5634E-01   2.6644E+01  0.000E+00  0.000E+00  0.000E+00  1.03945E+03  1.272E+00  1.200E+01  6.000E-02  1.424E+00
   1   11    7     6     3    2.6644E+01  2.5590E-01   2.6388E+01  0.000E+00  0.000E+00  0.000E+00  1.03490E+03  1.265E+00  1.200E+01  6.000E-02  1.422E+00
   1   12    7     6     4    2.6388E+01  2.5546E-01   2.6132E+01  0.000E+00  0.000E+00  0.000E+00  1.03035E+03  1.258E+00  1.200E+01  6.000E-02  1.419E+00
   1   13    7     6     5    2.6132E+01  1.0939E-03   2.6131E+01  0.000E+00  0.000E+00  0.000E+00  1.02716E+03  1.254E+00  1.200E+01  2.400E-02  1.519E-02
   1   14    9     7     1    1.5000E+02  1.3306E+00   1.4867E+02  0.000E+00  0.000E+00  0.000E+00  1.03987E+03  2.288E+00  5.529E+01  5.593E-01  7.930E-01
   1   13    8     7     2    1.4867E+02  1.8228E+00   1.4685E+02  0.000E+00  0.000E+00  0.000E+00  1.03478E+03  2.279E+00  5.526E+01  6.148E-01  9.883E-01
   1   13    7     7     3    1.4685E+02  1.4367E+00   1.4541E+02  0.000E+00  0.000E+00  0.000E+00  1.02969E+03  2.271E+00  5.522E+01  5.585E-01  8.575E-01
   1   13    6     8     1    1.7154E+02  8.8336E-01   1.7066E+02  0.000E+00  0.000E+00  0.000E+00  1.02483E+03  2.959E+00  4.291E+01  4.373E-01  6.734E-01
   1   13    5     8     2    1.7066E+02  1.2909E-01   1.7053E+02  0.000E+00  0.000E+00  0.000E+00  1.01858E+03  2.956E+00  4.286E+01  4.368E-01  9.852E-02
   1   13    4     8     3    1.7053E+02 -2.6157E+00   1.7314E+02  0.000E+00  0.000E+00  0.000E+00  1.01234E+03  2.964E+00  4.298E+01  4.380E+00 -1.991E-01
   1   13    3     8     4    1.7314E+02 -3.7119E+00   1.7686E+02  0.000E+00  0.000E+00  0.000E+00  1.00611E+03  2.984E+00  4.327E+01  4.410E+00 -2.806E-01
   1   13    2     8     5    1.7686E+02 -2.5514E+00   1.7941E+02  0.000E+00  0.000E+00  0.000E+00  9.99879E+02  3.004E+00  4.356E+01  4.439E+00 -1.916E-01
   1   13    1     8     6    1.7941E+02 -1.9322E+00   1.8134E+02  0.000E+00  0.000E+00  0.000E+00  9.94893E+02  3.019E+00  4.377E+01  2.676E+00 -2.407E-01





UNSATURATED ZONE PACKAGE VOLUMETRIC BUDGET FOR  TIME STEP    30 STRESS PERIOD    2
  ------------------------------------------------------------------------------



     CUMULATIVE VOLUMES      L**3       RATES FOR THIS TIME STEP      L**3/T
     ------------------                 ------------------------

           IN:                                      IN:
           ---                                      ---
        INFILTRATION =     2302148.8727          INFILTRATION =           0.8475

          OUT:                                     OUT:
          ----                                     ----
              UZF ET =     1972459.3430                UZF ET =           0.7500
        UZF RECHARGE =       73224.0000          UZF RECHARGE =       0.0000E+00

            IN - OUT =      256465.5297              IN - OUT =       9.7500E-02

          STORAGE:                                 STORAGE:
          --------                                 --------
      STORAGE CHANGE =      256465.5549        STORAGE CHANGE =       9.7500E-02

 PERCENT DISCREPANCY IS DIFFERENCE BETWEEN IN-OUT MINUS CHANGE IN STORAGE
 DIVIDED BY THE AVERAGE OF IN AND OUT TIMES 100

 PERCENT DISCREPANCY =          -0.00     PERCENT DISCREPANCY =           0.00






1
  VOLUMETRIC BUDGET FOR AGRICULTURAL FIELDS AT  END OF TIME STEP   30, STRESS PERIOD   2
  ------------------------------------------------------------------------------

     CUMULATIVE VOLUMES      L**3       RATES FOR THIS TIME STEP      L**3/T
     ------------------                 ------------------------

           IN:                                      IN:
           ---                                      ---
               AG WELLS  =           0.0000                 AG WELLS  =           0.0000
      DIVERSION SEGMENTS =           0.0000        DIVERSION SEGMENTS =           0.0000
           GW IRRIGATION =           0.0000             GW IRRIGATION =           0.0000
           SW IRRIGATION =           0.0000             SW IRRIGATION =           0.0000
        SYSTEM LOSSES GW =           0.0000          SYSTEM LOSSES GW =           0.0000
        SYSTEM LOSSES SW =           0.0000          SYSTEM LOSSES SW =           0.0000

                TOTAL IN =           0.0000                  TOTAL IN =           0.0000

          OUT:                                     OUT:
          ----                                     ----
               AG WELLS  =           0.0000                 AG WELLS  =           0.0000
      DIVERSION SEGMENTS =           0.0000        DIVERSION SEGMENTS =           0.0000
           GW IRRIGATION =           0.0000             GW IRRIGATION =           0.0000
           SW IRRIGATION =           0.0000             SW IRRIGATION =           0.0000
        SYSTEM LOSSES GW =           0.0000          SYSTEM LOSSES GW =           0.0000
        SYSTEM LOSSES SW =           0.0000          SYSTEM LOSSES SW =           0.0000

               TOTAL OUT =           0.0000                 TOTAL OUT =           0.0000

                IN - OUT =           0.0000                  IN - OUT =           0.0000

     PERCENT DISCREPANCY =           0.00         PERCENT DISCREPANCY =           0.00



1
  VOLUMETRIC BUDGET FOR ENTIRE MODEL AT END OF TIME STEP   30, STRESS PERIOD   2
  ------------------------------------------------------------------------------

     CUMULATIVE VOLUMES      L**3       RATES FOR THIS TIME STEP      L**3/T
     ------------------                 ------------------------

           IN:                                      IN:
           ---                                      ---
             STORAGE     =     1687680.6250               STORAGE     =           0.5792
       CONSTANT HEAD     =           0.0000         CONSTANT HEAD     =           0.0000
     HEAD DEP BOUNDS     =      775205.3125       HEAD DEP BOUNDS     =           0.2854
      STREAM LEAKAGE     =    31116962.0000        STREAM LEAKAGE     =          11.4714
        UZF RECHARGE     =       73223.9531          UZF RECHARGE     =           0.0000
               GW ET     =           0.0000                 GW ET     =           0.0000
     SURFACE LEAKAGE     =           0.0000       SURFACE LEAKAGE     =           0.0000
           AG WELLS      =           0.0000             AG WELLS      =           0.0000

                TOTAL IN =    33653072.0000                  TOTAL IN =          12.3360

          OUT:                                     OUT:
          ----                                     ----
             STORAGE     =     4220741.5000               STORAGE     =           1.2356
       CONSTANT HEAD     =           0.0000         CONSTANT HEAD     =           0.0000
     HEAD DEP BOUNDS     =      783850.8125       HEAD DEP BOUNDS     =           0.2894
      STREAM LEAKAGE     =    28649202.0000        STREAM LEAKAGE     =          10.8112
        UZF RECHARGE     =           0.0000          UZF RECHARGE     =           0.0000
               GW ET     =           0.0000                 GW ET     =           0.0000
     SURFACE LEAKAGE     =           0.0000       SURFACE LEAKAGE     =           0.0000
           AG WELLS      =           0.0000             AG WELLS      =           0.0000

               TOTAL OUT =    33653796.0000                 TOTAL OUT =          12.3362

                IN - OUT =        -724.0000                  IN - OUT =      -1.8406E-04

     PERCENT DISCREPANCY =          -0.00         PERCENT DISCREPANCY =          -0.00






         TIME SUMMARY AT END OF TIME STEP   30 IN STRESS PERIOD    2
                    SECONDS     MINUTES      HOURS       DAYS        YEARS
                    -----------------------------------------------------------
   TIME STEP LENGTH  87667.      1461.1      24.352      1.0147     2.77799E-03
 STRESS PERIOD TIME 2.63000E+06  43833.      730.56      30.440     8.33397E-02
         TOTAL TIME 2.71640E+06  45273.      754.56      31.440     8.60775E-02
1
1
                            STRESS PERIOD NO.    3, LENGTH =   2630000.    
                            -----------------------------------------------

                              NUMBER OF TIME STEPS =    30

                               MULTIPLIER FOR DELT =     1.000

                            INITIAL TIME STEP SIZE =   87666.66    

 REUSING NON-PARAMETER GHB CELLS FROM LAST STRESS PERIOD

      2 GHB CELLS

 REUSING STREAM SEGMENT DATA FROM LAST STRESS PERIOD



            AREAL INFILTRATION RATE
 READING ON UNIT   19 WITH FORMAT: (FREE)              

            1           2           3           4           5           6           7           8           9          10
 ........................................................................................................................
   1   1.0000E-10  2.0000E-10   0.000       0.000       0.000       0.000       0.000       0.000       0.000       0.000    
   2   2.0000E-10  1.0000E-10  2.0000E-10   0.000       0.000      8.0000E-10  8.0000E-10  5.0000E-10   0.000       0.000    
   3    0.000      5.0000E-10  1.0000E-10  1.0000E-10  8.0000E-10  8.0000E-10  5.0000E-10  5.0000E-10   0.000       0.000    
   4   8.0000E-10  5.0000E-10  1.0000E-10  1.0000E-10  1.0000E-10  1.0000E-10  1.0000E-10  1.0000E-10  2.0000E-10   0.000    
   5   8.0000E-10  5.0000E-10  1.0000E-10  1.0000E-10  1.0000E-10  1.0000E-10  1.0000E-10  1.0000E-10  1.0000E-10  1.0000E-10
   6   8.0000E-10  5.0000E-10  5.0000E-10  2.0000E-10  2.0000E-10  1.0000E-10  1.0000E-10  1.0000E-10  1.0000E-10  5.0000E-10
   7   8.0000E-10  5.0000E-10  5.0000E-10  2.0000E-10  2.0000E-10  1.0000E-10  1.0000E-10  2.0000E-10  2.0000E-10   0.000    
   8    0.000      5.0000E-10  5.0000E-10  2.0000E-10  2.0000E-10  1.0000E-10  1.0000E-10  2.0000E-10  5.0000E-10   0.000    
   9    0.000      5.0000E-10  5.0000E-10  2.0000E-10  2.0000E-10  1.0000E-10  1.0000E-10  2.0000E-10  5.0000E-10   0.000    
  10    0.000      5.0000E-10  5.0000E-10  2.0000E-10  2.0000E-10  1.0000E-10  1.0000E-10  2.0000E-10  5.0000E-10  8.0000E-10
  11    0.000      1.0000E-10  1.0000E-10  1.0000E-10  1.0000E-10  1.0000E-10  1.0000E-10  2.0000E-10  5.0000E-10   0.000    
  12   1.0000E-10  1.0000E-10  1.0000E-10  1.0000E-10  1.0000E-10  1.0000E-10  1.0000E-10  1.0000E-10  2.0000E-10   0.000    
  13   1.0000E-10  1.0000E-10  2.0000E-10  2.0000E-10  2.0000E-10  2.0000E-10  2.0000E-10  1.0000E-10  1.0000E-10   0.000    
  14    0.000      2.0000E-10  5.0000E-10  5.0000E-10  5.0000E-10  5.0000E-10  5.0000E-10  2.0000E-10  1.0000E-10   0.000    
  15    0.000       0.000      8.0000E-10  8.0000E-10  8.0000E-10  8.0000E-10   0.000       0.000       0.000       0.000    

                  ET RATE =  5.000000E-10

 USING ET EXTINCTION DEPTH FROM PREVIOUS STRESS PERIOD. CURRENT PERIOD IS:       3

 USING EXTINCTION WATER CONTENT FROM PREVIOUS STRESS PERIOD. CURRENT PERIOD IS:       3

 USING AIR ENTRY PRESSURE FROM PREVIOUS STRESS PERIOD. CURRENT PERIOD IS:       3

 USING ROOT PRESSURE HEAD FROM PREVIOUS STRESS PERIOD. CURRENT PERIOD IS:       3

 USING ROOT ACTIVITY FROM PREVIOUS STRESS PERIOD. CURRENT PERIOD IS:       3

 PROCESSING AG STRESS PERIOD DATA

 READING AG STRESS PERIOD DATA

 READING IRRIGATION WELL

 END PROCESSING AG STRESS PERIOD DATA OPTIONS
 
 SOLVING FOR HEAD 
                                                   Max.-Head-Change                         Max.-Flux-Residual
  Residual-Control   Outer-Iter.   Inner-Iter.     Column Row Layer    Maximum-Head-Change  Column Row Layer    Maximum-Flux-Residual          L2-NORM 
          0                 1           2             2    2     1       0.4445665286E-02       2   13    1         0.2434066220E+00      0.6122455110E+00
          0                 2           2             2    2     1      -0.4324427978E-03       4   13    1        -0.2398280827E-01      0.6028183369E-01
          0                 3           1             2    2     1       0.2944774381E-04       4   13    1         0.1654190492E-02      0.4132676097E-02

    ------------------------------------------------
       NWT REQUIRED            3 OUTER ITERATIONS 
       AND A TOTAL OF          5 INNER ITERATIONS.
    ------------------------------------------------

 NO OUTPUT CONTROL FOR STRESS PERIOD    3   TIME STEP    1
 
 SOLVING FOR HEAD 
                                                   Max.-Head-Change                         Max.-Flux-Residual
  Residual-Control   Outer-Iter.   Inner-Iter.     Column Row Layer    Maximum-Head-Change  Column Row Layer    Maximum-Flux-Residual          L2-NORM 
          0                 1           2             2   13     1       0.7704228150E-02       4   13    1         0.4384295257E+00      0.9459695459E+00
          0                 2           2             4   13     1      -0.7354931067E-03       4   13    1        -0.4338184119E-01      0.9262998593E-01
          0                 3           1             4   13     1       0.4934807919E-04       4   13    1         0.2992601530E-02      0.6301614212E-02

    ------------------------------------------------
       NWT REQUIRED            3 OUTER ITERATIONS 
       AND A TOTAL OF          5 INNER ITERATIONS.
    ------------------------------------------------

 NO OUTPUT CONTROL FOR STRESS PERIOD    3   TIME STEP    2
 
 SOLVING FOR HEAD 
                                                   Max.-Head-Change                         Max.-Flux-Residual
  Residual-Control   Outer-Iter.   Inner-Iter.     Column Row Layer    Maximum-Head-Change  Column Row Layer    Maximum-Flux-Residual          L2-NORM 
          0                 1           2             2   13     1       0.7121116640E-02       2   13    1         0.4014735264E+00      0.8938699939E+00
          0                 2           2             4   13     1      -0.6668010778E-03       4   13    1        -0.3930253460E-01      0.8761642163E-01
          0                 3           1             4   13     1       0.4472506444E-04       4   13    1         0.2710313403E-02      0.5968252171E-02

    ------------------------------------------------
       NWT REQUIRED            3 OUTER ITERATIONS 
       AND A TOTAL OF          5 INNER ITERATIONS.
    ------------------------------------------------

 NO OUTPUT CONTROL FOR STRESS PERIOD    3   TIME STEP    3
 
 SOLVING FOR HEAD 
                                                   Max.-Head-Change                         Max.-Flux-Residual
  Residual-Control   Outer-Iter.   Inner-Iter.     Column Row Layer    Maximum-Head-Change  Column Row Layer    Maximum-Flux-Residual          L2-NORM 
          0                 1           2             2   13     1       0.6582771786E-02       2   13    1         0.3710762475E+00      0.8472032202E+00
          0                 2           2             2   13     1      -0.6119550421E-03       4   13    1        -0.3563263179E-01      0.8312984471E-01
          0                 3           1             4   13     1       0.4057758001E-04       4   13    1         0.2457150210E-02      0.5671347157E-02

    ------------------------------------------------
       NWT REQUIRED            3 OUTER ITERATIONS 
       AND A TOTAL OF          5 INNER ITERATIONS.
    ------------------------------------------------

 NO OUTPUT CONTROL FOR STRESS PERIOD    3   TIME STEP    4
 
 SOLVING FOR HEAD 
                                                   Max.-Head-Change                         Max.-Flux-Residual
  Residual-Control   Outer-Iter.   Inner-Iter.     Column Row Layer    Maximum-Head-Change  Column Row Layer    Maximum-Flux-Residual          L2-NORM 
          0                 1           2             2   13     1       0.6085655586E-02       2   13    1         0.3430085352E+00      0.8054133240E+00
          0                 2           2             2   13     1      -0.5659520978E-03       2   13    1        -0.3278943612E-01      0.7911601767E-01
          0                 3           1             4   13     1       0.3683652880E-04       4   13    1         0.2228863331E-02      0.5406648515E-02

    ------------------------------------------------
       NWT REQUIRED            3 OUTER ITERATIONS 
       AND A TOTAL OF          5 INNER ITERATIONS.
    ------------------------------------------------

 NO OUTPUT CONTROL FOR STRESS PERIOD    3   TIME STEP    5
 
 SOLVING FOR HEAD 
                                                   Max.-Head-Change                         Max.-Flux-Residual
  Residual-Control   Outer-Iter.   Inner-Iter.     Column Row Layer    Maximum-Head-Change  Column Row Layer    Maximum-Flux-Residual          L2-NORM 
          0                 1           2             2   13     1       0.5626671385E-02       2   13    1         0.3170956184E+00      0.7680202260E+00
          0                 2           2             2   13     1      -0.5234523362E-03       2   13    1        -0.3032297302E-01      0.7552024134E-01
          0                 3           1             2    2     1       0.3527220036E-04       4   13    1         0.2022693333E-02      0.5167879134E-02

    ------------------------------------------------
       NWT REQUIRED            3 OUTER ITERATIONS 
       AND A TOTAL OF          5 INNER ITERATIONS.
    ------------------------------------------------

 NO OUTPUT CONTROL FOR STRESS PERIOD    3   TIME STEP    6
 
 SOLVING FOR HEAD 
                                                   Max.-Head-Change                         Max.-Flux-Residual
  Residual-Control   Outer-Iter.   Inner-Iter.     Column Row Layer    Maximum-Head-Change  Column Row Layer    Maximum-Flux-Residual          L2-NORM 
          0                 1           2             2    2     1       0.5289563836E-02       2   13    1         0.2931746523E+00      0.7345794353E+00
          0                 2           2             2    2     1      -0.5145314320E-03       2   13    1        -0.2804397696E-01      0.7231642811E-01
          0                 3           1             2    2     1       0.3503767206E-04       2    2    1         0.1933947734E-02      0.4958340866E-02

    ------------------------------------------------
       NWT REQUIRED            3 OUTER ITERATIONS 
       AND A TOTAL OF          5 INNER ITERATIONS.
    ------------------------------------------------

 NO OUTPUT CONTROL FOR STRESS PERIOD    3   TIME STEP    7
 
 SOLVING FOR HEAD 
                                                   Max.-Head-Change                         Max.-Flux-Residual
  Residual-Control   Outer-Iter.   Inner-Iter.     Column Row Layer    Maximum-Head-Change  Column Row Layer    Maximum-Flux-Residual          L2-NORM 
          0                 1           2             2    2     1       0.5254572937E-02       2    2    1         0.2744371693E+00      0.7046593575E+00
          0                 2           2             2    2     1      -0.5111277509E-03       2    2    1        -0.2744378923E-01      0.6944692002E-01
          0                 3           1             2    2     1       0.3480589461E-04       2    2    1         0.1921065396E-02      0.4767317497E-02

    ------------------------------------------------
       NWT REQUIRED            3 OUTER ITERATIONS 
       AND A TOTAL OF          5 INNER ITERATIONS.
    ------------------------------------------------

 NO OUTPUT CONTROL FOR STRESS PERIOD    3   TIME STEP    8
 
 SOLVING FOR HEAD 
                                                   Max.-Head-Change                         Max.-Flux-Residual
  Residual-Control   Outer-Iter.   Inner-Iter.     Column Row Layer    Maximum-Head-Change  Column Row Layer    Maximum-Flux-Residual          L2-NORM 
          0                 1           2             2    2     1       0.5220076986E-02       2    2    1         0.2726229308E+00      0.6779037349E+00
          0                 2           2             2    2     1      -0.5077722155E-03       2    2    1        -0.2726236405E-01      0.6688224341E-01
          0                 3           1             2    2     1       0.3457739485E-04       2    2    1         0.1908365633E-02      0.4597583739E-02

    ------------------------------------------------
       NWT REQUIRED            3 OUTER ITERATIONS 
       AND A TOTAL OF          5 INNER ITERATIONS.
    ------------------------------------------------

 NO OUTPUT CONTROL FOR STRESS PERIOD    3   TIME STEP    9
 
 SOLVING FOR HEAD 
                                                   Max.-Head-Change                         Max.-Flux-Residual
  Residual-Control   Outer-Iter.   Inner-Iter.     Column Row Layer    Maximum-Head-Change  Column Row Layer    Maximum-Flux-Residual          L2-NORM 
          0                 1           2             2    2     1       0.5186067953E-02       2    2    1         0.2708343548E+00      0.6539757095E+00
          0                 2           2             2    2     1      -0.5044640442E-03       2    2    1        -0.2708350515E-01      0.6459023512E-01
          0                 3           1             2    2     1       0.3435212095E-04       2    2    1         0.1895845522E-02      0.4446521841E-02

    ------------------------------------------------
       NWT REQUIRED            3 OUTER ITERATIONS 
       AND A TOTAL OF          5 INNER ITERATIONS.
    ------------------------------------------------

 NO OUTPUT CONTROL FOR STRESS PERIOD    3   TIME STEP   10
 
 SOLVING FOR HEAD 
                                                   Max.-Head-Change                         Max.-Flux-Residual
  Residual-Control   Outer-Iter.   Inner-Iter.     Column Row Layer    Maximum-Head-Change  Column Row Layer    Maximum-Flux-Residual          L2-NORM 
          0                 1           2             2    2     1       0.5152538752E-02       2    2    1         0.2690710250E+00      0.6325552764E+00
          0                 2           2             2    2     1      -0.5012025483E-03       2    2    1        -0.2690717091E-01      0.6253668831E-01
          0                 3           1             2    2     1       0.3413002557E-04       2    2    1         0.1883502138E-02      0.4311292154E-02

    ------------------------------------------------
       NWT REQUIRED            3 OUTER ITERATIONS 
       AND A TOTAL OF          5 INNER ITERATIONS.
    ------------------------------------------------

 NO OUTPUT CONTROL FOR STRESS PERIOD    3   TIME STEP   11
 
 SOLVING FOR HEAD 
                                                   Max.-Head-Change                         Max.-Flux-Residual
  Residual-Control   Outer-Iter.   Inner-Iter.     Column Row Layer    Maximum-Head-Change  Column Row Layer    Maximum-Flux-Residual          L2-NORM 
          0                 1           2             2    2     1       0.5119394464E-02       2    2    1         0.2673280186E+00      0.6133688708E+00
          0                 2           2             2    2     1      -0.4979784937E-03       2    2    1        -0.2673286902E-01      0.6071032095E-01
          0                 3           1             2    2     1       0.3391047916E-04       2    2    1         0.1871300988E-02      0.4190833740E-02

    ------------------------------------------------
       NWT REQUIRED            3 OUTER ITERATIONS 
       AND A TOTAL OF          5 INNER ITERATIONS.
    ------------------------------------------------

 NO OUTPUT CONTROL FOR STRESS PERIOD    3   TIME STEP   12
 
 SOLVING FOR HEAD 
                                                   Max.-Head-Change                         Max.-Flux-Residual
  Residual-Control   Outer-Iter.   Inner-Iter.     Column Row Layer    Maximum-Head-Change  Column Row Layer    Maximum-Flux-Residual          L2-NORM 
          0                 1           2             2    2     1       0.5086715367E-02       2    2    1         0.2656095247E+00      0.5961580603E+00
          0                 2           2             2    2     1      -0.4947996906E-03       2    2    1        -0.2656101843E-01      0.5905051561E-01
          0                 3           1             2    2     1       0.3369401494E-04       2    2    1         0.1859271464E-02      0.4082240452E-02

    ------------------------------------------------
       NWT REQUIRED            3 OUTER ITERATIONS 
       AND A TOTAL OF          5 INNER ITERATIONS.
    ------------------------------------------------

 NO OUTPUT CONTROL FOR STRESS PERIOD    3   TIME STEP   13
 
 SOLVING FOR HEAD 
                                                   Max.-Head-Change                         Max.-Flux-Residual
  Residual-Control   Outer-Iter.   Inner-Iter.     Column Row Layer    Maximum-Head-Change  Column Row Layer    Maximum-Flux-Residual          L2-NORM 
          0                 1           2             2    2     1       0.5054493947E-02       2    2    1         0.2639151505E+00      0.5807039200E+00
          0                 2           2             2    2     1      -0.4916654073E-03       2    2    1        -0.2639157983E-01      0.5756939094E-01
          0                 3           1             2    2     1       0.3348058180E-04       2    2    1         0.1847410763E-02      0.3983489931E-02

    ------------------------------------------------
       NWT REQUIRED            3 OUTER ITERATIONS 
       AND A TOTAL OF          5 INNER ITERATIONS.
    ------------------------------------------------

 NO OUTPUT CONTROL FOR STRESS PERIOD    3   TIME STEP   14
 
 SOLVING FOR HEAD 
                                                   Max.-Head-Change                         Max.-Flux-Residual
  Residual-Control   Outer-Iter.   Inner-Iter.     Column Row Layer    Maximum-Head-Change  Column Row Layer    Maximum-Flux-Residual          L2-NORM 
          0                 1           2             2    2     1       0.5022723226E-02       2    2    1         0.2622445063E+00      0.5668089653E+00
          0                 2           2             2    2     1      -0.4885749653E-03       2    2    1        -0.2622451426E-01      0.5627819909E-01
          0                 3           1             2    2     1       0.3327013430E-04       2    2    1         0.1835716181E-02      0.3898653882E-02

    ------------------------------------------------
       NWT REQUIRED            3 OUTER ITERATIONS 
       AND A TOTAL OF          5 INNER ITERATIONS.
    ------------------------------------------------

 NO OUTPUT CONTROL FOR STRESS PERIOD    3   TIME STEP   15
 
 SOLVING FOR HEAD 
                                                   Max.-Head-Change                         Max.-Flux-Residual
  Residual-Control   Outer-Iter.   Inner-Iter.     Column Row Layer    Maximum-Head-Change  Column Row Layer    Maximum-Flux-Residual          L2-NORM 
          0                 1           2             2    2     1       0.4991308793E-02       2    2    1         0.2605926743E+00      0.5542622282E+00
          0                 2           2             2    2     1      -0.4855191807E-03       2    2    1        -0.2605932995E-01      0.5503397538E-01
          0                 3           1             2    2     1       0.3306204690E-04       2    2    1         0.1824153299E-02      0.3817575781E-02

    ------------------------------------------------
       NWT REQUIRED            3 OUTER ITERATIONS 
       AND A TOTAL OF          5 INNER ITERATIONS.
    ------------------------------------------------

 NO OUTPUT CONTROL FOR STRESS PERIOD    3   TIME STEP   16
 
 SOLVING FOR HEAD 
                                                   Max.-Head-Change                         Max.-Flux-Residual
  Residual-Control   Outer-Iter.   Inner-Iter.     Column Row Layer    Maximum-Head-Change  Column Row Layer    Maximum-Flux-Residual          L2-NORM 
          0                 1           2             2    2     1       0.4960331393E-02       2    2    1         0.2589638713E+00      0.5429197800E+00
          0                 2           2             2    2     1      -0.4825059073E-03       2    2    1        -0.2589644853E-01      0.5394235783E-01
          0                 3           1             2    2     1       0.3285685448E-04       2    2    1         0.1812751593E-02      0.3744132130E-02

    ------------------------------------------------
       NWT REQUIRED            3 OUTER ITERATIONS 
       AND A TOTAL OF          5 INNER ITERATIONS.
    ------------------------------------------------

 NO OUTPUT CONTROL FOR STRESS PERIOD    3   TIME STEP   17
 
 SOLVING FOR HEAD 
                                                   Max.-Head-Change                         Max.-Flux-Residual
  Residual-Control   Outer-Iter.   Inner-Iter.     Column Row Layer    Maximum-Head-Change  Column Row Layer    Maximum-Flux-Residual          L2-NORM 
          0                 1           2             2    2     1       0.4929772263E-02       2    2    1         0.2573570938E+00      0.5326596467E+00
          0                 2           2             2    2     1      -0.4795333213E-03       2    2    1        -0.2573576972E-01      0.5295893554E-01
          0                 3           1             2    2     1       0.3265443233E-04       2    2    1         0.1801504079E-02      0.3679158450E-02

    ------------------------------------------------
       NWT REQUIRED            3 OUTER ITERATIONS 
       AND A TOTAL OF          5 INNER ITERATIONS.
    ------------------------------------------------

 NO OUTPUT CONTROL FOR STRESS PERIOD    3   TIME STEP   18
 
 SOLVING FOR HEAD 
                                                   Max.-Head-Change                         Max.-Flux-Residual
  Residual-Control   Outer-Iter.   Inner-Iter.     Column Row Layer    Maximum-Head-Change  Column Row Layer    Maximum-Flux-Residual          L2-NORM 
          0                 1           2             2    2     1       0.4899649239E-02       2    2    1         0.2557732717E+00      0.5233501386E+00
          0                 2           2             2    2     1      -0.4766031567E-03       2    2    1        -0.2557738645E-01      0.5206266133E-01
          0                 3           1             2    2     1       0.3245489949E-04       2    2    1         0.1790417267E-02      0.3619169831E-02

    ------------------------------------------------
       NWT REQUIRED            3 OUTER ITERATIONS 
       AND A TOTAL OF          5 INNER ITERATIONS.
    ------------------------------------------------

 NO OUTPUT CONTROL FOR STRESS PERIOD    3   TIME STEP   19
 
 SOLVING FOR HEAD 
                                                   Max.-Head-Change                         Max.-Flux-Residual
  Residual-Control   Outer-Iter.   Inner-Iter.     Column Row Layer    Maximum-Head-Change  Column Row Layer    Maximum-Flux-Residual          L2-NORM 
          0                 1           2             2    2     1       0.4869943683E-02       2    2    1         0.2542114270E+00      0.5148868337E+00
          0                 2           2             2    2     1      -0.4737136008E-03       2    2    1        -0.2542120097E-01      0.5124791680E-01
          0                 3           1             2    2     1       0.3225813122E-04       2    2    1         0.1779484282E-02      0.3565172528E-02

    ------------------------------------------------
       NWT REQUIRED            3 OUTER ITERATIONS 
       AND A TOTAL OF          5 INNER ITERATIONS.
    ------------------------------------------------

 NO OUTPUT CONTROL FOR STRESS PERIOD    3   TIME STEP   20
 
 SOLVING FOR HEAD 
                                                   Max.-Head-Change                         Max.-Flux-Residual
  Residual-Control   Outer-Iter.   Inner-Iter.     Column Row Layer    Maximum-Head-Change  Column Row Layer    Maximum-Flux-Residual          L2-NORM 
          0                 1           2             2    2     1       0.4840560974E-02       2    2    1         0.2526666706E+00      0.5071619471E+00
          0                 2           2             2    2     1      -0.4708554493E-03       2    2    1        -0.2526672433E-01      0.5050227929E-01
          0                 3           1             2    2     1       0.3206350225E-04       2    2    1         0.1768670931E-02      0.3515572194E-02

    ------------------------------------------------
       NWT REQUIRED            3 OUTER ITERATIONS 
       AND A TOTAL OF          5 INNER ITERATIONS.
    ------------------------------------------------

 NO OUTPUT CONTROL FOR STRESS PERIOD    3   TIME STEP   21
 
 SOLVING FOR HEAD 
                                                   Max.-Head-Change                         Max.-Flux-Residual
  Residual-Control   Outer-Iter.   Inner-Iter.     Column Row Layer    Maximum-Head-Change  Column Row Layer    Maximum-Flux-Residual          L2-NORM 
          0                 1           2             2    2     1       0.4811582868E-02       2    2    1         0.2511432102E+00      0.5000934682E+00
          0                 2           2             2    2     1      -0.4680366543E-03       2    2    1        -0.2511437728E-01      0.4982003494E-01
          0                 3           1             2    2     1       0.3187155241E-04       2    2    1         0.1758006622E-02      0.3470108355E-02

    ------------------------------------------------
       NWT REQUIRED            3 OUTER ITERATIONS 
       AND A TOTAL OF          5 INNER ITERATIONS.
    ------------------------------------------------

 NO OUTPUT CONTROL FOR STRESS PERIOD    3   TIME STEP   22
 
 SOLVING FOR HEAD 
                                                   Max.-Head-Change                         Max.-Flux-Residual
  Residual-Control   Outer-Iter.   Inner-Iter.     Column Row Layer    Maximum-Head-Change  Column Row Layer    Maximum-Flux-Residual          L2-NORM 
          0                 1           2             2    2     1       0.4783003638E-02       2    2    1         0.2496407281E+00      0.4936161345E+00
          0                 2           2             2    2     1      -0.4652566606E-03       2    2    1        -0.2496412814E-01      0.4919397637E-01
          0                 3           1             2    2     1       0.3168224551E-04       2    2    1         0.1747489204E-02      0.3428257806E-02

    ------------------------------------------------
       NWT REQUIRED            3 OUTER ITERATIONS 
       AND A TOTAL OF          5 INNER ITERATIONS.
    ------------------------------------------------

 NO OUTPUT CONTROL FOR STRESS PERIOD    3   TIME STEP   23
 
 SOLVING FOR HEAD 
                                                   Max.-Head-Change                         Max.-Flux-Residual
  Residual-Control   Outer-Iter.   Inner-Iter.     Column Row Layer    Maximum-Head-Change  Column Row Layer    Maximum-Flux-Residual          L2-NORM 
          0                 1           2             2    2     1       0.4754729379E-02       2    2    1         0.2481543699E+00      0.4876501312E+00
          0                 2           2             2    2     1      -0.4625063320E-03       2    2    1        -0.2481549137E-01      0.4861593141E-01
          0                 3           1             2    2     1       0.3149495885E-04       2    2    1         0.1737084640E-02      0.3389263118E-02

    ------------------------------------------------
       NWT REQUIRED            3 OUTER ITERATIONS 
       AND A TOTAL OF          5 INNER ITERATIONS.
    ------------------------------------------------

 NO OUTPUT CONTROL FOR STRESS PERIOD    3   TIME STEP   24
 
 SOLVING FOR HEAD 
                                                   Max.-Head-Change                         Max.-Flux-Residual
  Residual-Control   Outer-Iter.   Inner-Iter.     Column Row Layer    Maximum-Head-Change  Column Row Layer    Maximum-Flux-Residual          L2-NORM 
          0                 1           2             2    2     1       0.4726929277E-02       2    2    1         0.2466929387E+00      0.4821481880E+00
          0                 2           2             2    2     1      -0.4598021270E-03       2    2    1        -0.2466934738E-01      0.4808266070E-01
          0                 3           1             2    2     1       0.3131081237E-04       2    2    1         0.1726854563E-02      0.3353692738E-02

    ------------------------------------------------
       NWT REQUIRED            3 OUTER ITERATIONS 
       AND A TOTAL OF          5 INNER ITERATIONS.
    ------------------------------------------------

 NO OUTPUT CONTROL FOR STRESS PERIOD    3   TIME STEP   25
 
 SOLVING FOR HEAD 
                                                   Max.-Head-Change                         Max.-Flux-Residual
  Residual-Control   Outer-Iter.   Inner-Iter.     Column Row Layer    Maximum-Head-Change  Column Row Layer    Maximum-Flux-Residual          L2-NORM 
          0                 1           2             2    2     1       0.4699421722E-02       2    2    1         0.2452469772E+00      0.4770442248E+00
          0                 2           2             2    2     1      -0.4571263784E-03       2    2    1        -0.2452475033E-01      0.4758678700E-01
          0                 3           1             2    2     1       0.3112860401E-04       2    2    1         0.1716732765E-02      0.3320470972E-02

    ------------------------------------------------
       NWT REQUIRED            3 OUTER ITERATIONS 
       AND A TOTAL OF          5 INNER ITERATIONS.
    ------------------------------------------------

 NO OUTPUT CONTROL FOR STRESS PERIOD    3   TIME STEP   26
 
 SOLVING FOR HEAD 
                                                   Max.-Head-Change                         Max.-Flux-Residual
  Residual-Control   Outer-Iter.   Inner-Iter.     Column Row Layer    Maximum-Head-Change  Column Row Layer    Maximum-Flux-Residual          L2-NORM 
          0                 1           2             2    2     1       0.4672289313E-02       2    2    1         0.2438207414E+00      0.4723097888E+00
          0                 2           2             2    2     1      -0.4544871218E-03       2    2    1        -0.2438212587E-01      0.4712585441E-01
          0                 3           1             2    2     1       0.3094888095E-04       2    2    1         0.1706749076E-02      0.3289020290E-02

    ------------------------------------------------
       NWT REQUIRED            3 OUTER ITERATIONS 
       AND A TOTAL OF          5 INNER ITERATIONS.
    ------------------------------------------------

 NO OUTPUT CONTROL FOR STRESS PERIOD    3   TIME STEP   27
 
 SOLVING FOR HEAD 
                                                   Max.-Head-Change                         Max.-Flux-Residual
  Residual-Control   Outer-Iter.   Inner-Iter.     Column Row Layer    Maximum-Head-Change  Column Row Layer    Maximum-Flux-Residual          L2-NORM 
          0                 1           2             2    2     1       0.4645525758E-02       2    2    1         0.2424139564E+00      0.4678978151E+00
          0                 2           2             2    2     1      -0.4518837448E-03       2    2    1        -0.2424144653E-01      0.4669636348E-01
          0                 3           1             2    2     1       0.3077160060E-04       2    2    1         0.1696901519E-02      0.3260156753E-02

    ------------------------------------------------
       NWT REQUIRED            3 OUTER ITERATIONS 
       AND A TOTAL OF          5 INNER ITERATIONS.
    ------------------------------------------------

 NO OUTPUT CONTROL FOR STRESS PERIOD    3   TIME STEP   28
 
 SOLVING FOR HEAD 
                                                   Max.-Head-Change                         Max.-Flux-Residual
  Residual-Control   Outer-Iter.   Inner-Iter.     Column Row Layer    Maximum-Head-Change  Column Row Layer    Maximum-Flux-Residual          L2-NORM 
          0                 1           2             2    2     1       0.4619038775E-02       2    2    1         0.2410217382E+00      0.4637718918E+00
          0                 2           2             2    2     1      -0.4493072702E-03       2    2    1        -0.2410222384E-01      0.4629384006E-01
          0                 3           1             2    2     1       0.3059615187E-04       2    2    1         0.1687155921E-02      0.3232911040E-02

    ------------------------------------------------
       NWT REQUIRED            3 OUTER ITERATIONS 
       AND A TOTAL OF          5 INNER ITERATIONS.
    ------------------------------------------------

 NO OUTPUT CONTROL FOR STRESS PERIOD    3   TIME STEP   29
 
 SOLVING FOR HEAD 
                                                   Max.-Head-Change                         Max.-Flux-Residual
  Residual-Control   Outer-Iter.   Inner-Iter.     Column Row Layer    Maximum-Head-Change  Column Row Layer    Maximum-Flux-Residual          L2-NORM 
          0                 1           2             4   13     1       0.1233761415E-01       4   13    1         0.7106686467E+00      0.1463897233E+01
          0                 2           2             4   13     1      -0.1186788795E-02       4   13    1        -0.7028720743E-01      0.1429485621E+00
          0                 3           1             4   13     1       0.7956404314E-04       4   13    1         0.4844754774E-02      0.9686384063E-02

    ------------------------------------------------
       NWT REQUIRED            3 OUTER ITERATIONS 
       AND A TOTAL OF          5 INNER ITERATIONS.
    ------------------------------------------------

 NO OUTPUT CONTROL FOR STRESS PERIOD    3   TIME STEP   30



 STREAM LISTING     PERIOD      3   STEP       30

 LAYER ROW COL. STREAM  RCH.  FLOW INTO     FLOW TO   FLOW OUT OF   OVRLND.     DIRECT     STREAM       STREAM     STREAM     STREAM   STREAMBED  STREAMBED
                SEG.NO.  NO.  STRM. RCH.    AQUIFER    STRM. RCH.    RUNOFF     PRECIP       ET          HEAD       DEPTH      WIDTH   CONDCTNC.   GRADIENT

   1    1    1     1     1    7.2502E+01  4.1419E-01   7.2087E+01  0.000E+00  0.000E+00  0.000E+00  1.09472E+03  1.670E+00  1.971E+01  8.868E-02  1.557E+00
   1    2    2     1     2    7.2087E+01  6.4160E-01   7.1446E+01  0.000E+00  0.000E+00  0.000E+00  1.08972E+03  1.665E+00  1.965E+01  1.375E-01  1.555E+00
   1    3    3     1     3    7.1446E+01  5.4733E-01   7.0899E+01  0.000E+00  0.000E+00  0.000E+00  1.08408E+03  1.658E+00  1.958E+01  1.175E-01  1.553E+00
   1    3    4     1     4    7.0899E+01  5.0414E-01   7.0394E+01  0.000E+00  0.000E+00  0.000E+00  1.07906E+03  1.652E+00  1.953E+01  1.084E-01  1.551E+00
   1    4    5     2     1    6.8394E+01  4.0598E-01   6.7988E+01  0.000E+00  0.000E+00  0.000E+00  1.07414E+03  2.205E+00  1.200E+01  7.800E-02  1.735E+00
   1    5    6     2     2    6.7988E+01  3.1187E-01   6.7677E+01  0.000E+00  0.000E+00  0.000E+00  1.06871E+03  2.198E+00  1.200E+01  6.000E-02  1.733E+00
   1    6    6     2     3    6.7677E+01  3.1151E-01   6.7365E+01  0.000E+00  0.000E+00  0.000E+00  1.06398E+03  2.192E+00  1.200E+01  6.000E-02  1.731E+00
   1    7    6     2     4    6.7365E+01  3.1115E-01   6.7054E+01  0.000E+00  0.000E+00  0.000E+00  1.05926E+03  2.186E+00  1.200E+01  6.000E-02  1.729E+00
   1    8    6     2     5    6.7054E+01  3.1078E-01   6.6743E+01  0.000E+00  0.000E+00  0.000E+00  1.05454E+03  2.180E+00  1.200E+01  6.000E-02  1.727E+00
   1    3    5     3     1    2.0000E+00  2.8252E-01   1.7175E+00  0.000E+00  0.000E+00  0.000E+00  1.07555E+03  1.909E+00  9.636E+00  7.227E-02  1.955E+00
   1    3    6     3     2    1.7175E+00  2.4905E-01   1.4684E+00  0.000E+00  0.000E+00  0.000E+00  1.07264E+03  1.727E+00  8.909E+00  6.682E-02  1.864E+00
   1    3    7     3     3    1.4684E+00  1.9718E-01   1.2712E+00  0.000E+00  0.000E+00  0.000E+00  1.06987E+03  1.555E+00  8.218E+00  5.547E-02  1.777E+00
   1    4    8     3     4    1.2712E+00  2.2567E-01   1.0456E+00  0.000E+00  0.000E+00  0.000E+00  1.06682E+03  1.364E+00  7.455E+00  6.709E-02  1.682E+00
   1    5    8     3     5    1.0456E+00  1.5790E-01   8.8768E-01  0.000E+00  0.000E+00  0.000E+00  1.06362E+03  1.164E+00  6.655E+00  4.991E-02  1.582E+00
   1    6    8     3     6    8.8768E-01  5.5980E-02   8.3170E-01  0.000E+00  0.000E+00  0.000E+00  1.06158E+03  1.036E+00  6.145E+00  1.844E-02  1.518E+00
   1    5   10     4     1    1.0000E+01  9.0919E-02   9.9091E+00  0.000E+00  0.000E+00  0.000E+00  1.07836E+03  6.368E-01  1.000E+01  2.500E-02  1.212E+00
   1    5    9     4     2    9.9091E+00  1.8158E-01   9.7275E+00  0.000E+00  0.000E+00  0.000E+00  1.07154E+03  6.315E-01  1.000E+01  5.000E-02  1.211E+00
   1    6    8     4     3    9.7275E+00  1.2689E-01   9.6006E+00  0.000E+00  0.000E+00  0.000E+00  1.06381E+03  6.256E-01  1.000E+01  3.500E-02  1.209E+00
   1    6    8     5     1    1.0432E+01  2.2686E-01   1.0205E+01  0.000E+00  0.000E+00  0.000E+00  1.05868E+03  6.790E-01  1.542E+01  6.166E-02  1.226E+00
   1    7    7     5     2    1.0205E+01  2.7894E-01   9.9265E+00  0.000E+00  0.000E+00  0.000E+00  1.05417E+03  6.732E-01  1.519E+01  7.594E-02  1.224E+00
   1    8    7     5     3    9.9265E+00  1.9221E-01   9.7343E+00  0.000E+00  0.000E+00  0.000E+00  1.04992E+03  6.676E-01  1.497E+01  5.241E-02  1.223E+00
   1    8    6     5     4    9.7343E+00  1.3577E-01   9.5985E+00  0.000E+00  0.000E+00  0.000E+00  1.04691E+03  6.637E-01  1.482E+01  3.706E-02  1.221E+00
   1    9    6     6     1    7.6342E+01  3.2296E-01   7.6019E+01  0.000E+00  0.000E+00  0.000E+00  1.04511E+03  2.383E+00  1.200E+01  6.000E-02  1.794E+00
   1   10    7     6     2    7.6019E+01  3.2260E-01   7.5696E+01  0.000E+00  0.000E+00  0.000E+00  1.04056E+03  2.377E+00  1.200E+01  6.000E-02  1.792E+00
   1   11    7     6     3    7.5696E+01  3.2224E-01   7.5374E+01  0.000E+00  0.000E+00  0.000E+00  1.03601E+03  2.371E+00  1.200E+01  6.000E-02  1.790E+00
   1   12    7     6     4    7.5374E+01  3.2187E-01   7.5052E+01  0.000E+00  0.000E+00  0.000E+00  1.03146E+03  2.365E+00  1.200E+01  6.000E-02  1.788E+00
   1   13    7     6     5    7.5052E+01  2.7035E-02   7.5025E+01  0.000E+00  0.000E+00  0.000E+00  1.02827E+03  2.361E+00  1.200E+01  2.400E-02  3.755E-01
   1   14    9     7     1    1.5000E+02  1.3312E+00   1.4867E+02  0.000E+00  0.000E+00  0.000E+00  1.03987E+03  2.288E+00  5.529E+01  5.593E-01  7.933E-01
   1   13    8     7     2    1.4867E+02  1.8193E+00   1.4685E+02  0.000E+00  0.000E+00  0.000E+00  1.03478E+03  2.279E+00  5.526E+01  6.148E-01  9.864E-01
   1   13    7     7     3    1.4685E+02  1.4219E+00   1.4543E+02  0.000E+00  0.000E+00  0.000E+00  1.02969E+03  2.271E+00  5.522E+01  5.585E-01  8.487E-01
   1   13    6     8     1    2.2045E+02  1.0869E+00   2.1937E+02  0.000E+00  0.000E+00  0.000E+00  1.02513E+03  3.251E+00  4.715E+01  4.804E-01  7.541E-01
   1   13    5     8     2    2.1937E+02  2.5867E-01   2.1911E+02  0.000E+00  0.000E+00  0.000E+00  1.01887E+03  3.248E+00  4.709E+01  4.799E-01  1.797E-01
   1   13    4     8     3    2.1911E+02 -1.9098E+00   2.2102E+02  0.000E+00  0.000E+00  0.000E+00  1.01263E+03  3.252E+00  4.716E+01  4.806E+00 -1.325E-01
   1   13    3     8     4    2.2102E+02 -3.1179E+00   2.2413E+02  0.000E+00  0.000E+00  0.000E+00  1.00639E+03  3.266E+00  4.736E+01  4.826E+00 -2.154E-01
   1   13    2     8     5    2.2413E+02 -1.9270E+00   2.2606E+02  0.000E+00  0.000E+00  0.000E+00  1.00015E+03  3.280E+00  4.756E+01  4.846E+00 -1.325E-01
   1   13    1     8     6    2.2606E+02 -1.5653E+00   2.2763E+02  0.000E+00  0.000E+00  0.000E+00  9.95164E+02  3.289E+00  4.770E+01  2.916E+00 -1.789E-01





UNSATURATED ZONE PACKAGE VOLUMETRIC BUDGET FOR  TIME STEP    30 STRESS PERIOD    3
  ------------------------------------------------------------------------------



     CUMULATIVE VOLUMES      L**3       RATES FOR THIS TIME STEP      L**3/T
     ------------------                 ------------------------

           IN:                                      IN:
           ---                                      ---
        INFILTRATION =     4531073.7455          INFILTRATION =           0.8475

          OUT:                                     OUT:
          ----                                     ----
              UZF ET =     3944959.2146                UZF ET =           0.7500
        UZF RECHARGE =       73224.0000          UZF RECHARGE =       0.0000E+00

            IN - OUT =      512890.5308              IN - OUT =       9.7500E-02

          STORAGE:                                 STORAGE:
          --------                                 --------
      STORAGE CHANGE =      512890.5771        STORAGE CHANGE =       9.7500E-02

 PERCENT DISCREPANCY IS DIFFERENCE BETWEEN IN-OUT MINUS CHANGE IN STORAGE
 DIVIDED BY THE AVERAGE OF IN AND OUT TIMES 100

 PERCENT DISCREPANCY =          -0.00     PERCENT DISCREPANCY =           0.00






1
  VOLUMETRIC BUDGET FOR AGRICULTURAL FIELDS AT  END OF TIME STEP   30, STRESS PERIOD   3
  ------------------------------------------------------------------------------

     CUMULATIVE VOLUMES      L**3       RATES FOR THIS TIME STEP      L**3/T
     ------------------                 ------------------------

           IN:                                      IN:
           ---                                      ---
               AG WELLS  =           0.0000                 AG WELLS  =           0.0000
      DIVERSION SEGMENTS =           0.0000        DIVERSION SEGMENTS =           0.0000
           GW IRRIGATION =           0.0000             GW IRRIGATION =           0.0000
           SW IRRIGATION =           0.0000             SW IRRIGATION =           0.0000
        SYSTEM LOSSES GW =           0.0000          SYSTEM LOSSES GW =           0.0000
        SYSTEM LOSSES SW =           0.0000          SYSTEM LOSSES SW =           0.0000

                TOTAL IN =           0.0000                  TOTAL IN =           0.0000

          OUT:                                     OUT:
          ----                                     ----
               AG WELLS  =           0.0000                 AG WELLS  =           0.0000
      DIVERSION SEGMENTS =           0.0000        DIVERSION SEGMENTS =           0.0000
           GW IRRIGATION =           0.0000             GW IRRIGATION =           0.0000
           SW IRRIGATION =           0.0000             SW IRRIGATION =           0.0000
        SYSTEM LOSSES GW =           0.0000          SYSTEM LOSSES GW =           0.0000
        SYSTEM LOSSES SW =           0.0000          SYSTEM LOSSES SW =           0.0000

               TOTAL OUT =           0.0000                 TOTAL OUT =           0.0000

                IN - OUT =           0.0000                  IN - OUT =           0.0000

     PERCENT DISCREPANCY =           0.00         PERCENT DISCREPANCY =           0.00



1
  VOLUMETRIC BUDGET FOR ENTIRE MODEL AT END OF TIME STEP   30, STRESS PERIOD   3
  ------------------------------------------------------------------------------

     CUMULATIVE VOLUMES      L**3       RATES FOR THIS TIME STEP      L**3/T
     ------------------                 ------------------------

           IN:                                      IN:
           ---                                      ---
             STORAGE     =     3047021.2500               STORAGE     =           0.4724
       CONSTANT HEAD     =           0.0000         CONSTANT HEAD     =           0.0000
     HEAD DEP BOUNDS     =     1525869.2500       HEAD DEP BOUNDS     =           0.2854
      STREAM LEAKAGE     =    63536332.0000        STREAM LEAKAGE     =          13.3947
        UZF RECHARGE     =       73223.9531          UZF RECHARGE     =           0.0000
               GW ET     =           0.0000                 GW ET     =           0.0000
     SURFACE LEAKAGE     =           0.0000       SURFACE LEAKAGE     =           0.0000
           AG WELLS      =           0.0000             AG WELLS      =           0.0000

                TOTAL IN =    68182448.0000                  TOTAL IN =          14.1525

          OUT:                                     OUT:
          ----                                     ----
             STORAGE     =    11250393.0000               STORAGE     =           5.3403
       CONSTANT HEAD     =           0.0000         CONSTANT HEAD     =           0.0000
     HEAD DEP BOUNDS     =     1549889.6250       HEAD DEP BOUNDS     =           0.2926
      STREAM LEAKAGE     =    55383872.0000        STREAM LEAKAGE     =           8.5200
        UZF RECHARGE     =           0.0000          UZF RECHARGE     =           0.0000
               GW ET     =         620.0435                 GW ET     =       9.2744E-04
     SURFACE LEAKAGE     =           0.0000       SURFACE LEAKAGE     =           0.0000
           AG WELLS      =           0.0000             AG WELLS      =           0.0000

               TOTAL OUT =    68184776.0000                 TOTAL OUT =          14.1539

                IN - OUT =       -2328.0000                  IN - OUT =      -1.3819E-03

     PERCENT DISCREPANCY =          -0.00         PERCENT DISCREPANCY =          -0.01






         TIME SUMMARY AT END OF TIME STEP   30 IN STRESS PERIOD    3
                    SECONDS     MINUTES      HOURS       DAYS        YEARS
                    -----------------------------------------------------------
   TIME STEP LENGTH  87667.      1461.1      24.352      1.0147     2.77799E-03
 STRESS PERIOD TIME 2.63000E+06  43833.      730.56      30.440     8.33397E-02
         TOTAL TIME 5.34640E+06  89107.      1485.1      61.880     0.16942    
1
1
                            STRESS PERIOD NO.    4, LENGTH =   2630000.    
                            -----------------------------------------------

                              NUMBER OF TIME STEPS =    30

                               MULTIPLIER FOR DELT =     1.000

                            INITIAL TIME STEP SIZE =   87666.66    

 REUSING NON-PARAMETER GHB CELLS FROM LAST STRESS PERIOD

      2 GHB CELLS

 REUSING STREAM SEGMENT DATA FROM LAST STRESS PERIOD



            AREAL INFILTRATION RATE
 READING ON UNIT   19 WITH FORMAT: (FREE)              

            1           2           3           4           5           6           7           8           9          10
 ........................................................................................................................
   1   1.0000E-10  2.0000E-10   0.000       0.000       0.000       0.000       0.000       0.000       0.000       0.000    
   2   2.0000E-10  1.0000E-10  2.0000E-10   0.000       0.000      8.0000E-10  8.0000E-10  5.0000E-10   0.000       0.000    
   3    0.000      5.0000E-10  1.0000E-10  1.0000E-10  8.0000E-10  8.0000E-10  5.0000E-10  5.0000E-10   0.000       0.000    
   4   8.0000E-10  5.0000E-10  1.0000E-10  1.0000E-10  1.0000E-10  1.0000E-10  1.0000E-10  1.0000E-10  2.0000E-10   0.000    
   5   8.0000E-10  5.0000E-10  1.0000E-10  1.0000E-10  1.0000E-10  1.0000E-10  1.0000E-10  1.0000E-10  1.0000E-10  1.0000E-10
   6   8.0000E-10  5.0000E-10  5.0000E-10  2.0000E-10  2.0000E-10  1.0000E-10  1.0000E-10  1.0000E-10  1.0000E-10  5.0000E-10
   7   8.0000E-10  5.0000E-10  5.0000E-10  2.0000E-10  2.0000E-10  1.0000E-10  1.0000E-10  2.0000E-10  2.0000E-10   0.000    
   8    0.000      5.0000E-10  5.0000E-10  2.0000E-10  2.0000E-10  1.0000E-10  1.0000E-10  2.0000E-10  5.0000E-10   0.000    
   9    0.000      5.0000E-10  5.0000E-10  2.0000E-10  2.0000E-10  1.0000E-10  1.0000E-10  2.0000E-10  5.0000E-10   0.000    
  10    0.000      5.0000E-10  5.0000E-10  2.0000E-10  2.0000E-10  1.0000E-10  1.0000E-10  2.0000E-10  5.0000E-10  8.0000E-10
  11    0.000      1.0000E-10  1.0000E-10  1.0000E-10  1.0000E-10  1.0000E-10  1.0000E-10  2.0000E-10  5.0000E-10   0.000    
  12   1.0000E-10  1.0000E-10  1.0000E-10  1.0000E-10  1.0000E-10  1.0000E-10  1.0000E-10  1.0000E-10  2.0000E-10   0.000    
  13   1.0000E-10  1.0000E-10  2.0000E-10  2.0000E-10  2.0000E-10  2.0000E-10  2.0000E-10  1.0000E-10  1.0000E-10   0.000    
  14    0.000      2.0000E-10  5.0000E-10  5.0000E-10  5.0000E-10  5.0000E-10  5.0000E-10  2.0000E-10  1.0000E-10   0.000    
  15    0.000       0.000      8.0000E-10  8.0000E-10  8.0000E-10  8.0000E-10   0.000       0.000       0.000       0.000    

                  ET RATE =  5.000000E-10

 USING ET EXTINCTION DEPTH FROM PREVIOUS STRESS PERIOD. CURRENT PERIOD IS:       4

 USING EXTINCTION WATER CONTENT FROM PREVIOUS STRESS PERIOD. CURRENT PERIOD IS:       4

 USING AIR ENTRY PRESSURE FROM PREVIOUS STRESS PERIOD. CURRENT PERIOD IS:       4

 USING ROOT PRESSURE HEAD FROM PREVIOUS STRESS PERIOD. CURRENT PERIOD IS:       4

 USING ROOT ACTIVITY FROM PREVIOUS STRESS PERIOD. CURRENT PERIOD IS:       4

 PROCESSING AG STRESS PERIOD DATA

 READING AG STRESS PERIOD DATA

 READING IRRIGATION WELL

 END PROCESSING AG STRESS PERIOD DATA OPTIONS
 
 SOLVING FOR HEAD 
                                                   Max.-Head-Change                         Max.-Flux-Residual
  Residual-Control   Outer-Iter.   Inner-Iter.     Column Row Layer    Maximum-Head-Change  Column Row Layer    Maximum-Flux-Residual          L2-NORM 
          0                 1           2             2   13     1       0.1291412629E-01       4   13    1         0.7419828818E+00      0.1544938391E+01
          0                 2           2             4   13     1      -0.1238733571E-02       4   13    1        -0.7337778533E-01      0.1508213686E+00
          0                 3           1             4   13     1       0.8305113103E-04       4   13    1         0.5058067524E-02      0.1021610055E-01

    ------------------------------------------------
       NWT REQUIRED            3 OUTER ITERATIONS 
       AND A TOTAL OF          5 INNER ITERATIONS.
    ------------------------------------------------

 NO OUTPUT CONTROL FOR STRESS PERIOD    4   TIME STEP    1
 
 SOLVING FOR HEAD 
                                                   Max.-Head-Change                         Max.-Flux-Residual
  Residual-Control   Outer-Iter.   Inner-Iter.     Column Row Layer    Maximum-Head-Change  Column Row Layer    Maximum-Flux-Residual          L2-NORM 
          0                 1           2             2   13     1       0.1188956944E-01       2   13    1         0.6731437367E+00      0.1450617488E+01
          0                 2           2             4   13     1      -0.1118345642E-02       4   13    1        -0.6619743502E-01      0.1417642018E+00
          0                 3           1             4   13     1       0.7493531261E-04       4   13    1         0.4560341007E-02      0.9615301970E-02

    ------------------------------------------------
       NWT REQUIRED            3 OUTER ITERATIONS 
       AND A TOTAL OF          5 INNER ITERATIONS.
    ------------------------------------------------

 NO OUTPUT CONTROL FOR STRESS PERIOD    4   TIME STEP    2
 
 SOLVING FOR HEAD 
                                                   Max.-Head-Change                         Max.-Flux-Residual
  Residual-Control   Outer-Iter.   Inner-Iter.     Column Row Layer    Maximum-Head-Change  Column Row Layer    Maximum-Flux-Residual          L2-NORM 
          0                 1           2             2   13     1       0.1094717547E-01       2   13    1         0.6197103584E+00      0.1366416223E+01
          0                 2           2             2   13     1      -0.1014813084E-02       4   13    1        -0.5976387736E-01      0.1336863851E+00
          0                 3           1             4   13     1       0.6771690456E-04       4   13    1         0.4117826474E-02      0.9083156983E-02

    ------------------------------------------------
       NWT REQUIRED            3 OUTER ITERATIONS 
       AND A TOTAL OF          5 INNER ITERATIONS.
    ------------------------------------------------

 NO OUTPUT CONTROL FOR STRESS PERIOD    4   TIME STEP    3
 
 SOLVING FOR HEAD 
                                                   Max.-Head-Change                         Max.-Flux-Residual
  Residual-Control   Outer-Iter.   Inner-Iter.     Column Row Layer    Maximum-Head-Change  Column Row Layer    Maximum-Flux-Residual          L2-NORM 
          0                 1           2             2   13     1       0.1008039780E-01       2   13    1         0.5705666849E+00      0.1291316106E+01
          0                 2           2             2   13     1      -0.9348987528E-03       2   13    1        -0.5439352681E-01      0.1264891544E+00
          0                 3           1             4   13     1       0.6121526068E-04       4   13    1         0.3719379638E-02      0.8608523213E-02

    ------------------------------------------------
       NWT REQUIRED            3 OUTER ITERATIONS 
       AND A TOTAL OF          5 INNER ITERATIONS.
    ------------------------------------------------

 NO OUTPUT CONTROL FOR STRESS PERIOD    4   TIME STEP    4
 
 SOLVING FOR HEAD 
                                                   Max.-Head-Change                         Max.-Flux-Residual
  Residual-Control   Outer-Iter.   Inner-Iter.     Column Row Layer    Maximum-Head-Change  Column Row Layer    Maximum-Flux-Residual          L2-NORM 
          0                 1           2             2   13     1       0.9283192919E-02       2   13    1         0.5253698312E+00      0.1224401291E+01
          0                 2           2             2   13     1      -0.8613180595E-03       2   13    1        -0.5010512775E-01      0.1200812166E+00
          0                 3           1             4   13     1       0.5539122599E-04       4   13    1         0.3362620314E-02      0.8186451892E-02

    ------------------------------------------------
       NWT REQUIRED            3 OUTER ITERATIONS 
       AND A TOTAL OF          5 INNER ITERATIONS.
    ------------------------------------------------

 NO OUTPUT CONTROL FOR STRESS PERIOD    4   TIME STEP    5
 
 SOLVING FOR HEAD 
                                                   Max.-Head-Change                         Max.-Flux-Residual
  Residual-Control   Outer-Iter.   Inner-Iter.     Column Row Layer    Maximum-Head-Change  Column Row Layer    Maximum-Flux-Residual          L2-NORM 
          0                 1           2             2   13     1       0.8549968753E-02       2   13    1         0.4838025886E+00      0.1164812255E+01
          0                 2           2             2   13     1      -0.7935818355E-03       2   13    1        -0.4615758153E-01      0.1143796077E+00
          0                 3           1             2    2     1       0.5140191552E-04       4   13    1         0.3042044049E-02      0.7811545483E-02

    ------------------------------------------------
       NWT REQUIRED            3 OUTER ITERATIONS 
       AND A TOTAL OF          5 INNER ITERATIONS.
    ------------------------------------------------

 NO OUTPUT CONTROL FOR STRESS PERIOD    4   TIME STEP    6
 
 SOLVING FOR HEAD 
                                                   Max.-Head-Change                         Max.-Flux-Residual
  Residual-Control   Outer-Iter.   Inner-Iter.     Column Row Layer    Maximum-Head-Change  Column Row Layer    Maximum-Flux-Residual          L2-NORM 
          0                 1           2             2   13     1       0.7875623901E-02       2   13    1         0.4455755505E+00      0.1111787754E+01
          0                 2           2             2    2     1      -0.7501962072E-03       2   13    1        -0.4252501670E-01      0.1093101347E+00
          0                 3           1             2    2     1       0.5108555886E-04       2    2    1         0.2818321163E-02      0.7479048273E-02

    ------------------------------------------------
       NWT REQUIRED            3 OUTER ITERATIONS 
       AND A TOTAL OF          5 INNER ITERATIONS.
    ------------------------------------------------

 NO OUTPUT CONTROL FOR STRESS PERIOD    4   TIME STEP    7
 
 SOLVING FOR HEAD 
                                                   Max.-Head-Change                         Max.-Flux-Residual
  Residual-Control   Outer-Iter.   Inner-Iter.     Column Row Layer    Maximum-Head-Change  Column Row Layer    Maximum-Flux-Residual          L2-NORM 
          0                 1           2             2    2     1       0.7665179765E-02       2   13    1         0.4104182791E+00      0.1064627762E+01
          0                 2           2             2    2     1      -0.7456151780E-03       2    2    1        -0.4001410411E-01      0.1048040842E+00
          0                 3           1             2    2     1       0.5077360787E-04       2    2    1         0.2800987117E-02      0.7182214321E-02

    ------------------------------------------------
       NWT REQUIRED            3 OUTER ITERATIONS 
       AND A TOTAL OF          5 INNER ITERATIONS.
    ------------------------------------------------

 NO OUTPUT CONTROL FOR STRESS PERIOD    4   TIME STEP    8
 
 SOLVING FOR HEAD 
                                                   Max.-Head-Change                         Max.-Flux-Residual
  Residual-Control   Outer-Iter.   Inner-Iter.     Column Row Layer    Maximum-Head-Change  Column Row Layer    Maximum-Flux-Residual          L2-NORM 
          0                 1           2             2    2     1       0.7618653143E-02       2    2    1         0.3976932392E+00      0.1022691495E+01
          0                 2           2             2    2     1      -0.7410893681E-03       2    2    1        -0.3976946756E-01      0.1007997980E+00
          0                 3           1             2    2     1       0.5046541738E-04       2    2    1         0.2783862583E-02      0.6920533619E-02

    ------------------------------------------------
       NWT REQUIRED            3 OUTER ITERATIONS 
       AND A TOTAL OF          5 INNER ITERATIONS.
    ------------------------------------------------

 NO OUTPUT CONTROL FOR STRESS PERIOD    4   TIME STEP    9
 
 SOLVING FOR HEAD 
                                                   Max.-Head-Change                         Max.-Flux-Residual
  Residual-Control   Outer-Iter.   Inner-Iter.     Column Row Layer    Maximum-Head-Change  Column Row Layer    Maximum-Flux-Residual          L2-NORM 
          0                 1           2             2    2     1       0.7572772008E-02       2    2    1         0.3952808920E+00      0.9853862385E+00
          0                 2           2             2    2     1      -0.7366263468E-03       2    2    1        -0.3952823035E-01      0.9723793948E-01
          0                 3           1             2    2     1       0.5016150286E-04       2    2    1         0.2766975991E-02      0.6686730714E-02

    ------------------------------------------------
       NWT REQUIRED            3 OUTER ITERATIONS 
       AND A TOTAL OF          5 INNER ITERATIONS.
    ------------------------------------------------

 NO OUTPUT CONTROL FOR STRESS PERIOD    4   TIME STEP   10
 
 SOLVING FOR HEAD 
                                                   Max.-Head-Change                         Max.-Flux-Residual
  Residual-Control   Outer-Iter.   Inner-Iter.     Column Row Layer    Maximum-Head-Change  Column Row Layer    Maximum-Flux-Residual          L2-NORM 
          0                 1           2             2    2     1       0.7527438419E-02       2    2    1         0.3928974518E+00      0.9522080601E+00
          0                 2           2             2    2     1      -0.7322165883E-03       2    2    1        -0.3928988391E-01      0.9407308657E-01
          0                 3           1             2    2     1       0.4986121489E-04       2    2    1         0.2750291755E-02      0.6479251116E-02

    ------------------------------------------------
       NWT REQUIRED            3 OUTER ITERATIONS 
       AND A TOTAL OF          5 INNER ITERATIONS.
    ------------------------------------------------

 NO OUTPUT CONTROL FOR STRESS PERIOD    4   TIME STEP   11
 
 SOLVING FOR HEAD 
                                                   Max.-Head-Change                         Max.-Flux-Residual
  Residual-Control   Outer-Iter.   Inner-Iter.     Column Row Layer    Maximum-Head-Change  Column Row Layer    Maximum-Flux-Residual          L2-NORM 
          0                 1           2             2    2     1       0.7482730564E-02       2    2    1         0.3905469617E+00      0.9226726497E+00
          0                 2           2             2    2     1      -0.7278676975E-03       2    2    1        -0.3905483256E-01      0.9125265290E-01
          0                 3           1             2    2     1       0.4956507178E-04       2    2    1         0.2733838170E-02      0.6293967185E-02

    ------------------------------------------------
       NWT REQUIRED            3 OUTER ITERATIONS 
       AND A TOTAL OF          5 INNER ITERATIONS.
    ------------------------------------------------

 NO OUTPUT CONTROL FOR STRESS PERIOD    4   TIME STEP   12
 
 SOLVING FOR HEAD 
                                                   Max.-Head-Change                         Max.-Flux-Residual
  Residual-Control   Outer-Iter.   Inner-Iter.     Column Row Layer    Maximum-Head-Change  Column Row Layer    Maximum-Flux-Residual          L2-NORM 
          0                 1           2             2    2     1       0.7438639233E-02       2    2    1         0.3882289153E+00      0.8963546562E+00
          0                 2           2             2    2     1      -0.7235787787E-03       2    2    1        -0.3882302561E-01      0.8874011323E-01
          0                 3           1             2    2     1       0.4927301270E-04       2    2    1         0.2717611707E-02      0.6129635497E-02

    ------------------------------------------------
       NWT REQUIRED            3 OUTER ITERATIONS 
       AND A TOTAL OF          5 INNER ITERATIONS.
    ------------------------------------------------

 NO OUTPUT CONTROL FOR STRESS PERIOD    4   TIME STEP   13
 
 SOLVING FOR HEAD 
                                                   Max.-Head-Change                         Max.-Flux-Residual
  Residual-Control   Outer-Iter.   Inner-Iter.     Column Row Layer    Maximum-Head-Change  Column Row Layer    Maximum-Flux-Residual          L2-NORM 
          0                 1           2             2    2     1       0.7395066983E-02       2    2    1         0.3859382734E+00      0.8728756013E+00
          0                 2           2             2    2     1      -0.7193403529E-03       2    2    1        -0.3859395916E-01      0.8649866352E-01
          0                 3           1             2    2     1       0.4898439178E-04       2    2    1         0.2701577072E-02      0.5982734161E-02

    ------------------------------------------------
       NWT REQUIRED            3 OUTER ITERATIONS 
       AND A TOTAL OF          5 INNER ITERATIONS.
    ------------------------------------------------

 NO OUTPUT CONTROL FOR STRESS PERIOD    4   TIME STEP   14
 
 SOLVING FOR HEAD 
                                                   Max.-Head-Change                         Max.-Flux-Residual
  Residual-Control   Outer-Iter.   Inner-Iter.     Column Row Layer    Maximum-Head-Change  Column Row Layer    Maximum-Flux-Residual          L2-NORM 
          0                 1           2             2    2     1       0.7352092854E-02       2    2    1         0.3836791065E+00      0.8518994278E+00
          0                 2           2             2    2     1      -0.7151601084E-03       2    2    1        -0.3836804027E-01      0.8449567653E-01
          0                 3           1             2    2     1       0.4869973324E-04       2    2    1         0.2685762758E-02      0.5851036864E-02

    ------------------------------------------------
       NWT REQUIRED            3 OUTER ITERATIONS 
       AND A TOTAL OF          5 INNER ITERATIONS.
    ------------------------------------------------

 NO OUTPUT CONTROL FOR STRESS PERIOD    4   TIME STEP   15
 
 SOLVING FOR HEAD 
                                                   Max.-Head-Change                         Max.-Flux-Residual
  Residual-Control   Outer-Iter.   Inner-Iter.     Column Row Layer    Maximum-Head-Change  Column Row Layer    Maximum-Flux-Residual          L2-NORM 
          0                 1           2             2    2     1       0.7309707357E-02       2    2    1         0.3814509516E+00      0.8331307620E+00
          0                 2           2             2    2     1      -0.7110371230E-03       2    2    1        -0.3814522262E-01      0.8270110331E-01
          0                 3           1             2    2     1       0.4841897341E-04       2    2    1         0.2670165546E-02      0.5732657778E-02

    ------------------------------------------------
       NWT REQUIRED            3 OUTER ITERATIONS 
       AND A TOTAL OF          5 INNER ITERATIONS.
    ------------------------------------------------

 NO OUTPUT CONTROL FOR STRESS PERIOD    4   TIME STEP   16
 
 SOLVING FOR HEAD 
                                                   Max.-Head-Change                         Max.-Flux-Residual
  Residual-Control   Outer-Iter.   Inner-Iter.     Column Row Layer    Maximum-Head-Change  Column Row Layer    Maximum-Flux-Residual          L2-NORM 
          0                 1           2             2    2     1       0.7267901158E-02       2    2    1         0.3792533165E+00      0.8162931960E+00
          0                 2           2             2    2     1      -0.7069704878E-03       2    2    1        -0.3792545702E-01      0.8109098760E-01
          0                 3           1             2    2     1       0.4814205101E-04       2    2    1         0.2654781948E-02      0.5626889720E-02

    ------------------------------------------------
       NWT REQUIRED            3 OUTER ITERATIONS 
       AND A TOTAL OF          5 INNER ITERATIONS.
    ------------------------------------------------

 NO OUTPUT CONTROL FOR STRESS PERIOD    4   TIME STEP   17
 
 SOLVING FOR HEAD 
                                                   Max.-Head-Change                         Max.-Flux-Residual
  Residual-Control   Outer-Iter.   Inner-Iter.     Column Row Layer    Maximum-Head-Change  Column Row Layer    Maximum-Flux-Residual          L2-NORM 
          0                 1           2             2    2     1       0.7226578131E-02       2    2    1         0.3770811549E+00      0.8011508426E+00
          0                 2           2             2    2     1      -0.7029508528E-03       2    2    1        -0.3770823880E-01      0.7964083820E-01
          0                 3           1             2    2     1       0.4786832891E-04       2    2    1         0.2639576682E-02      0.5531029795E-02

    ------------------------------------------------
       NWT REQUIRED            3 OUTER ITERATIONS 
       AND A TOTAL OF          5 INNER ITERATIONS.
    ------------------------------------------------

 NO OUTPUT CONTROL FOR STRESS PERIOD    4   TIME STEP   18
 
 SOLVING FOR HEAD 
                                                   Max.-Head-Change                         Max.-Flux-Residual
  Residual-Control   Outer-Iter.   Inner-Iter.     Column Row Layer    Maximum-Head-Change  Column Row Layer    Maximum-Flux-Residual          L2-NORM 
          0                 1           2             2    2     1       0.7185817218E-02       2    2    1         0.3749386074E+00      0.7875070338E+00
          0                 2           2             2    2     1      -0.6989858975E-03       2    2    1        -0.3749398205E-01      0.7833269047E-01
          0                 3           1             2    2     1       0.4759833038E-04       2    2    1         0.2624578734E-02      0.5445139414E-02

    ------------------------------------------------
       NWT REQUIRED            3 OUTER ITERATIONS 
       AND A TOTAL OF          5 INNER ITERATIONS.
    ------------------------------------------------

 NO OUTPUT CONTROL FOR STRESS PERIOD    4   TIME STEP   19
 
 SOLVING FOR HEAD 
                                                   Max.-Head-Change                         Max.-Flux-Residual
  Residual-Control   Outer-Iter.   Inner-Iter.     Column Row Layer    Maximum-Head-Change  Column Row Layer    Maximum-Flux-Residual          L2-NORM 
          0                 1           2             2    2     1       0.7145522238E-02       2    2    1         0.3728206420E+00      0.7751638086E+00
          0                 2           2             2    2     1      -0.6950662644E-03       2    2    1        -0.3728218352E-01      0.7714819499E-01
          0                 3           1             2    2     1       0.4733141808E-04       2    2    1         0.2609752834E-02      0.5367000219E-02

    ------------------------------------------------
       NWT REQUIRED            3 OUTER ITERATIONS 
       AND A TOTAL OF          5 INNER ITERATIONS.
    ------------------------------------------------

 NO OUTPUT CONTROL FOR STRESS PERIOD    4   TIME STEP   20
 
 SOLVING FOR HEAD 
                                                   Max.-Head-Change                         Max.-Flux-Residual
  Residual-Control   Outer-Iter.   Inner-Iter.     Column Row Layer    Maximum-Head-Change  Column Row Layer    Maximum-Flux-Residual          L2-NORM 
          0                 1           2             2    2     1       0.7105773241E-02       2    2    1         0.3707313974E+00      0.7639715127E+00
          0                 2           2             2    2     1      -0.6911997419E-03       2    2    1        -0.3707325713E-01      0.7607260370E-01
          0                 3           1             2    2     1       0.4706812237E-04       2    2    1         0.2595128006E-02      0.5295437653E-02

    ------------------------------------------------
       NWT REQUIRED            3 OUTER ITERATIONS 
       AND A TOTAL OF          5 INNER ITERATIONS.
    ------------------------------------------------

 NO OUTPUT CONTROL FOR STRESS PERIOD    4   TIME STEP   21
 
 SOLVING FOR HEAD 
                                                   Max.-Head-Change                         Max.-Flux-Residual
  Residual-Control   Outer-Iter.   Inner-Iter.     Column Row Layer    Maximum-Head-Change  Column Row Layer    Maximum-Flux-Residual          L2-NORM 
          0                 1           2             2    2     1       0.7066561166E-02       2    2    1         0.3686704614E+00      0.7538014623E+00
          0                 2           2             2    2     1      -0.6873854482E-03       2    2    1        -0.3686716167E-01      0.7509363301E-01
          0                 3           1             2    2     1       0.4680838364E-04       2    2    1         0.2580701338E-02      0.5230201085E-02

    ------------------------------------------------
       NWT REQUIRED            3 OUTER ITERATIONS 
       AND A TOTAL OF          5 INNER ITERATIONS.
    ------------------------------------------------

 NO OUTPUT CONTROL FOR STRESS PERIOD    4   TIME STEP   22
 
 SOLVING FOR HEAD 
                                                   Max.-Head-Change                         Max.-Flux-Residual
  Residual-Control   Outer-Iter.   Inner-Iter.     Column Row Layer    Maximum-Head-Change  Column Row Layer    Maximum-Flux-Residual          L2-NORM 
          0                 1           2             2    2     1       0.7027878312E-02       2    2    1         0.3666373642E+00      0.7445178695E+00
          0                 2           2             2    2     1      -0.6836226336E-03       2    2    1        -0.3666385012E-01      0.7419872622E-01
          0                 3           1             2    2     1       0.4655215026E-04       2    2    1         0.2566469548E-02      0.5171024936E-02

    ------------------------------------------------
       NWT REQUIRED            3 OUTER ITERATIONS 
       AND A TOTAL OF          5 INNER ITERATIONS.
    ------------------------------------------------

 NO OUTPUT CONTROL FOR STRESS PERIOD    4   TIME STEP   23
 
 SOLVING FOR HEAD 
                                                   Max.-Head-Change                         Max.-Flux-Residual
  Residual-Control   Outer-Iter.   Inner-Iter.     Column Row Layer    Maximum-Head-Change  Column Row Layer    Maximum-Flux-Residual          L2-NORM 
          0                 1           2             2    2     1       0.6989628658E-02       2    2    1         0.3646271426E+00      0.7360062400E+00
          0                 2           2             2    2     1      -0.6799019578E-03       2    2    1        -0.3646282615E-01      0.7337673489E-01
          0                 3           1             2    2     1       0.4629878632E-04       2    2    1         0.2552397876E-02      0.5116143678E-02

    ------------------------------------------------
       NWT REQUIRED            3 OUTER ITERATIONS 
       AND A TOTAL OF          5 INNER ITERATIONS.
    ------------------------------------------------

 NO OUTPUT CONTROL FOR STRESS PERIOD    4   TIME STEP   24
 
 SOLVING FOR HEAD 
                                                   Max.-Head-Change                         Max.-Flux-Residual
  Residual-Control   Outer-Iter.   Inner-Iter.     Column Row Layer    Maximum-Head-Change  Column Row Layer    Maximum-Flux-Residual          L2-NORM 
          0                 1           2             2    2     1       0.6951892023E-02       2    2    1         0.3626439456E+00      0.7281983133E+00
          0                 2           2             2    2     1      -0.6762311859E-03       2    2    1        -0.3626450471E-01      0.7262156190E-01
          0                 3           1             2    2     1       0.4604882077E-04       2    2    1         0.2538515384E-02      0.5065284841E-02

    ------------------------------------------------
       NWT REQUIRED            3 OUTER ITERATIONS 
       AND A TOTAL OF          5 INNER ITERATIONS.
    ------------------------------------------------

 NO OUTPUT CONTROL FOR STRESS PERIOD    4   TIME STEP   25
 
 SOLVING FOR HEAD 
                                                   Max.-Head-Change                         Max.-Flux-Residual
  Residual-Control   Outer-Iter.   Inner-Iter.     Column Row Layer    Maximum-Head-Change  Column Row Layer    Maximum-Flux-Residual          L2-NORM 
          0                 1           2             2    2     1       0.6914661474E-02       2    2    1         0.3606873480E+00      0.7209916053E+00
          0                 2           2             2    2     1      -0.6726096427E-03       2    2    1        -0.3606884324E-01      0.7192341227E-01
          0                 3           1             2    2     1       0.4580220674E-04       2    2    1         0.2524819075E-02      0.5018352378E-02

    ------------------------------------------------
       NWT REQUIRED            3 OUTER ITERATIONS 
       AND A TOTAL OF          5 INNER ITERATIONS.
    ------------------------------------------------

 NO OUTPUT CONTROL FOR STRESS PERIOD    4   TIME STEP   26
 
 SOLVING FOR HEAD 
                                                   Max.-Head-Change                         Max.-Flux-Residual
  Residual-Control   Outer-Iter.   Inner-Iter.     Column Row Layer    Maximum-Head-Change  Column Row Layer    Maximum-Flux-Residual          L2-NORM 
          0                 1           2             2    2     1       0.6877928277E-02       2    2    1         0.3587569905E+00      0.7143397047E+00
          0                 2           2             2    2     1      -0.6690364786E-03       2    2    1        -0.3587580578E-01      0.7127801134E-01
          0                 3           1             2    2     1       0.4555888816E-04       2    2    1         0.2511306479E-02      0.4975163131E-02

    ------------------------------------------------
       NWT REQUIRED            3 OUTER ITERATIONS 
       AND A TOTAL OF          5 INNER ITERATIONS.
    ------------------------------------------------

 NO OUTPUT CONTROL FOR STRESS PERIOD    4   TIME STEP   27
 
 SOLVING FOR HEAD 
                                                   Max.-Head-Change                         Max.-Flux-Residual
  Residual-Control   Outer-Iter.   Inner-Iter.     Column Row Layer    Maximum-Head-Change  Column Row Layer    Maximum-Flux-Residual          L2-NORM 
          0                 1           2             2    2     1       0.6841597725E-02       2    2    1         0.3568478554E+00      0.7081477075E+00
          0                 2           2             2    2     1      -0.6655024816E-03       2    2    1        -0.3568489062E-01      0.7067626262E-01
          0                 3           1             2    2     1       0.4531823594E-04       2    2    1         0.2497942415E-02      0.4934768679E-02

    ------------------------------------------------
       NWT REQUIRED            3 OUTER ITERATIONS 
       AND A TOTAL OF          5 INNER ITERATIONS.
    ------------------------------------------------

 NO OUTPUT CONTROL FOR STRESS PERIOD    4   TIME STEP   28
 
 SOLVING FOR HEAD 
                                                   Max.-Head-Change                         Max.-Flux-Residual
  Residual-Control   Outer-Iter.   Inner-Iter.     Column Row Layer    Maximum-Head-Change  Column Row Layer    Maximum-Flux-Residual          L2-NORM 
          0                 1           2             2    2     1       0.6805750517E-02       2    2    1         0.3549641614E+00      0.7023917774E+00
          0                 2           2             2    2     1      -0.6620155020E-03       2    2    1        -0.3549651963E-01      0.7011587605E-01
          0                 3           1             2    2     1       0.4508078638E-04       2    2    1         0.2484756477E-02      0.4897059874E-02

    ------------------------------------------------
       NWT REQUIRED            3 OUTER ITERATIONS 
       AND A TOTAL OF          5 INNER ITERATIONS.
    ------------------------------------------------

 NO OUTPUT CONTROL FOR STRESS PERIOD    4   TIME STEP   29
 
 SOLVING FOR HEAD 
                                                   Max.-Head-Change                         Max.-Flux-Residual
  Residual-Control   Outer-Iter.   Inner-Iter.     Column Row Layer    Maximum-Head-Change  Column Row Layer    Maximum-Flux-Residual          L2-NORM 
          0                 1           2             2    2     1       0.5350702689E-02       2    2    1         0.2788864438E+00      0.6872009672E+00
          0                 2           2             2    2     1      -0.5204783368E-03       2    2    1        -0.2788870231E-01      0.6809488962E-01
          0                 3           1             2    2     1       0.3544263660E-04       2    2    1         0.1952209451E-02      0.4709458908E-02

    ------------------------------------------------
       NWT REQUIRED            3 OUTER ITERATIONS 
       AND A TOTAL OF          5 INNER ITERATIONS.
    ------------------------------------------------

 NO OUTPUT CONTROL FOR STRESS PERIOD    4   TIME STEP   30



 STREAM LISTING     PERIOD      4   STEP       30

 LAYER ROW COL. STREAM  RCH.  FLOW INTO     FLOW TO   FLOW OUT OF   OVRLND.     DIRECT     STREAM       STREAM     STREAM     STREAM   STREAMBED  STREAMBED
                SEG.NO.  NO.  STRM. RCH.    AQUIFER    STRM. RCH.    RUNOFF     PRECIP       ET          HEAD       DEPTH      WIDTH   CONDCTNC.   GRADIENT

   1    1    1     1     1    6.2247E+01  3.7977E-01   6.1867E+01  0.000E+00  0.000E+00  0.000E+00  1.09460E+03  1.553E+00  1.854E+01  8.342E-02  1.518E+00
   1    2    2     1     2    6.1867E+01  5.8816E-01   6.1279E+01  0.000E+00  0.000E+00  0.000E+00  1.08961E+03  1.547E+00  1.848E+01  1.294E-01  1.516E+00
   1    3    3     1     3    6.1279E+01  5.0162E-01   6.0777E+01  0.000E+00  0.000E+00  0.000E+00  1.08396E+03  1.540E+00  1.841E+01  1.105E-01  1.513E+00
   1    3    4     1     4    6.0777E+01  4.6193E-01   6.0316E+01  0.000E+00  0.000E+00  0.000E+00  1.07894E+03  1.534E+00  1.836E+01  1.019E-01  1.511E+00
   1    4    5     2     1    5.8316E+01  3.9026E-01   5.7925E+01  0.000E+00  0.000E+00  0.000E+00  1.07394E+03  2.003E+00  1.200E+01  7.800E-02  1.668E+00
   1    5    6     2     2    5.7925E+01  2.9977E-01   5.7626E+01  0.000E+00  0.000E+00  0.000E+00  1.06851E+03  1.996E+00  1.200E+01  6.000E-02  1.665E+00
   1    6    6     2     3    5.7626E+01  2.9940E-01   5.7326E+01  0.000E+00  0.000E+00  0.000E+00  1.06378E+03  1.990E+00  1.200E+01  6.000E-02  1.663E+00
   1    7    6     2     4    5.7326E+01  2.9902E-01   5.7027E+01  0.000E+00  0.000E+00  0.000E+00  1.05906E+03  1.984E+00  1.200E+01  6.000E-02  1.661E+00
   1    8    6     2     5    5.7027E+01  2.9865E-01   5.6728E+01  0.000E+00  0.000E+00  0.000E+00  1.05434E+03  1.977E+00  1.200E+01  6.000E-02  1.659E+00
   1    3    5     3     1    2.0000E+00  2.8252E-01   1.7175E+00  0.000E+00  0.000E+00  0.000E+00  1.07555E+03  1.909E+00  9.636E+00  7.227E-02  1.955E+00
   1    3    6     3     2    1.7175E+00  2.4905E-01   1.4684E+00  0.000E+00  0.000E+00  0.000E+00  1.07264E+03  1.727E+00  8.909E+00  6.682E-02  1.864E+00
   1    3    7     3     3    1.4684E+00  1.9718E-01   1.2712E+00  0.000E+00  0.000E+00  0.000E+00  1.06987E+03  1.555E+00  8.218E+00  5.547E-02  1.777E+00
   1    4    8     3     4    1.2712E+00  2.2567E-01   1.0456E+00  0.000E+00  0.000E+00  0.000E+00  1.06682E+03  1.364E+00  7.455E+00  6.709E-02  1.682E+00
   1    5    8     3     5    1.0456E+00  1.5790E-01   8.8768E-01  0.000E+00  0.000E+00  0.000E+00  1.06362E+03  1.164E+00  6.655E+00  4.991E-02  1.582E+00
   1    6    8     3     6    8.8768E-01  5.5980E-02   8.3170E-01  0.000E+00  0.000E+00  0.000E+00  1.06158E+03  1.036E+00  6.145E+00  1.844E-02  1.518E+00
   1    5   10     4     1    1.0000E+01  9.0919E-02   9.9091E+00  0.000E+00  0.000E+00  0.000E+00  1.07836E+03  6.368E-01  1.000E+01  2.500E-02  1.212E+00
   1    5    9     4     2    9.9091E+00  1.8158E-01   9.7275E+00  0.000E+00  0.000E+00  0.000E+00  1.07154E+03  6.315E-01  1.000E+01  5.000E-02  1.211E+00
   1    6    8     4     3    9.7275E+00  1.2689E-01   9.6006E+00  0.000E+00  0.000E+00  0.000E+00  1.06381E+03  6.256E-01  1.000E+01  3.500E-02  1.209E+00
   1    6    8     5     1    1.0432E+01  2.2686E-01   1.0205E+01  0.000E+00  0.000E+00  0.000E+00  1.05868E+03  6.790E-01  1.542E+01  6.166E-02  1.226E+00
   1    7    7     5     2    1.0205E+01  2.7894E-01   9.9265E+00  0.000E+00  0.000E+00  0.000E+00  1.05417E+03  6.732E-01  1.519E+01  7.594E-02  1.224E+00
   1    8    7     5     3    9.9265E+00  1.9221E-01   9.7343E+00  0.000E+00  0.000E+00  0.000E+00  1.04992E+03  6.676E-01  1.497E+01  5.241E-02  1.223E+00
   1    8    6     5     4    9.7343E+00  1.3577E-01   9.5985E+00  0.000E+00  0.000E+00  0.000E+00  1.04691E+03  6.637E-01  1.482E+01  3.706E-02  1.221E+00
   1    9    6     6     1    6.6327E+01  3.1138E-01   6.6016E+01  0.000E+00  0.000E+00  0.000E+00  1.04492E+03  2.190E+00  1.200E+01  6.000E-02  1.730E+00
   1   10    7     6     2    6.6016E+01  3.1101E-01   6.5705E+01  0.000E+00  0.000E+00  0.000E+00  1.04037E+03  2.183E+00  1.200E+01  6.000E-02  1.728E+00
   1   11    7     6     3    6.5705E+01  3.1064E-01   6.5394E+01  0.000E+00  0.000E+00  0.000E+00  1.03581E+03  2.177E+00  1.200E+01  6.000E-02  1.726E+00
   1   12    7     6     4    6.5394E+01  3.1026E-01   6.5084E+01  0.000E+00  0.000E+00  0.000E+00  1.03126E+03  2.171E+00  1.200E+01  6.000E-02  1.724E+00
   1   13    7     6     5    6.5084E+01  2.1634E-02   6.5062E+01  0.000E+00  0.000E+00  0.000E+00  1.02808E+03  2.168E+00  1.200E+01  2.400E-02  3.005E-01
   1   14    9     7     1    1.5000E+02  1.3316E+00   1.4867E+02  0.000E+00  0.000E+00  0.000E+00  1.03987E+03  2.288E+00  5.529E+01  5.593E-01  7.936E-01
   1   13    8     7     2    1.4867E+02  1.8148E+00   1.4685E+02  0.000E+00  0.000E+00  0.000E+00  1.03478E+03  2.279E+00  5.526E+01  6.148E-01  9.840E-01
   1   13    7     7     3    1.4685E+02  1.4044E+00   1.4545E+02  0.000E+00  0.000E+00  0.000E+00  1.02969E+03  2.271E+00  5.522E+01  5.585E-01  8.382E-01
   1   13    6     8     1    2.1051E+02  1.0054E+00   2.0951E+02  0.000E+00  0.000E+00  0.000E+00  1.02507E+03  3.196E+00  4.634E+01  4.722E-01  7.097E-01
   1   13    5     8     2    2.0951E+02  1.9100E-01   2.0931E+02  0.000E+00  0.000E+00  0.000E+00  1.01882E+03  3.192E+00  4.629E+01  4.717E-01  1.350E-01
   1   13    4     8     3    2.0931E+02 -2.6809E+00   2.1200E+02  0.000E+00  0.000E+00  0.000E+00  1.01257E+03  3.199E+00  4.639E+01  4.727E+00 -1.890E-01
   1   13    3     8     4    2.1200E+02 -3.8539E+00   2.1585E+02  0.000E+00  0.000E+00  0.000E+00  1.00634E+03  3.218E+00  4.666E+01  4.755E+00 -2.702E-01
   1   13    2     8     5    2.1585E+02 -2.7437E+00   2.1859E+02  0.000E+00  0.000E+00  0.000E+00  1.00011E+03  3.236E+00  4.693E+01  4.782E+00 -1.912E-01
   1   13    1     8     6    2.1859E+02 -2.0240E+00   2.2062E+02  0.000E+00  0.000E+00  0.000E+00  9.95125E+02  3.250E+00  4.712E+01  2.881E+00 -2.342E-01





UNSATURATED ZONE PACKAGE VOLUMETRIC BUDGET FOR  TIME STEP    30 STRESS PERIOD    4
  ------------------------------------------------------------------------------



     CUMULATIVE VOLUMES      L**3       RATES FOR THIS TIME STEP      L**3/T
     ------------------                 ------------------------

           IN:                                      IN:
           ---                                      ---
        INFILTRATION =     6759998.6182          INFILTRATION =           0.8475

          OUT:                                     OUT:
          ----                                     ----
              UZF ET =     5917459.1037                UZF ET =           0.7500
        UZF RECHARGE =       73224.0000          UZF RECHARGE =       0.0000E+00

            IN - OUT =      769315.5145              IN - OUT =       9.7500E-02

          STORAGE:                                 STORAGE:
          --------                                 --------
      STORAGE CHANGE =      769315.5804        STORAGE CHANGE =       9.7500E-02

 PERCENT DISCREPANCY IS DIFFERENCE BETWEEN IN-OUT MINUS CHANGE IN STORAGE
 DIVIDED BY THE AVERAGE OF IN AND OUT TIMES 100

 PERCENT DISCREPANCY =           0.00     PERCENT DISCREPANCY =           0.00






1
  VOLUMETRIC BUDGET FOR AGRICULTURAL FIELDS AT  END OF TIME STEP   30, STRESS PERIOD   4
  ------------------------------------------------------------------------------

     CUMULATIVE VOLUMES      L**3       RATES FOR THIS TIME STEP      L**3/T
     ------------------                 ------------------------

           IN:                                      IN:
           ---                                      ---
               AG WELLS  =           0.0000                 AG WELLS  =           0.0000
      DIVERSION SEGMENTS =           0.0000        DIVERSION SEGMENTS =           0.0000
           GW IRRIGATION =           0.0000             GW IRRIGATION =           0.0000
           SW IRRIGATION =           0.0000             SW IRRIGATION =           0.0000
        SYSTEM LOSSES GW =           0.0000          SYSTEM LOSSES GW =           0.0000
        SYSTEM LOSSES SW =           0.0000          SYSTEM LOSSES SW =           0.0000

                TOTAL IN =           0.0000                  TOTAL IN =           0.0000

          OUT:                                     OUT:
          ----                                     ----
               AG WELLS  =           0.0000                 AG WELLS  =           0.0000
      DIVERSION SEGMENTS =           0.0000        DIVERSION SEGMENTS =           0.0000
           GW IRRIGATION =           0.0000             GW IRRIGATION =           0.0000
           SW IRRIGATION =           0.0000             SW IRRIGATION =           0.0000
        SYSTEM LOSSES GW =           0.0000          SYSTEM LOSSES GW =           0.0000
        SYSTEM LOSSES SW =           0.0000          SYSTEM LOSSES SW =           0.0000

               TOTAL OUT =           0.0000                 TOTAL OUT =           0.0000

                IN - OUT =           0.0000                  IN - OUT =           0.0000

     PERCENT DISCREPANCY =           0.00         PERCENT DISCREPANCY =           0.00



1
  VOLUMETRIC BUDGET FOR ENTIRE MODEL AT END OF TIME STEP   30, STRESS PERIOD   4
  ------------------------------------------------------------------------------

     CUMULATIVE VOLUMES      L**3       RATES FOR THIS TIME STEP      L**3/T
     ------------------                 ------------------------

           IN:                                      IN:
           ---                                      ---
             STORAGE     =     4269829.0000               STORAGE     =           1.1052
       CONSTANT HEAD     =           0.0000         CONSTANT HEAD     =           0.0000
     HEAD DEP BOUNDS     =     2276621.5000       HEAD DEP BOUNDS     =           0.2855
      STREAM LEAKAGE     =    98974160.0000        STREAM LEAKAGE     =          12.9321
        UZF RECHARGE     =       73223.9531          UZF RECHARGE     =           0.0000
               GW ET     =           0.0000                 GW ET     =           0.0000
     SURFACE LEAKAGE     =           0.0000       SURFACE LEAKAGE     =           0.0000
           AG WELLS      =           0.0000             AG WELLS      =           0.0000

                TOTAL IN =   105593832.0000                  TOTAL IN =          14.3228

          OUT:                                     OUT:
          ----                                     ----
             STORAGE     =    22369452.0000               STORAGE     =           2.7188
       CONSTANT HEAD     =           0.0000         CONSTANT HEAD     =           0.0000
     HEAD DEP BOUNDS     =     2327708.2500       HEAD DEP BOUNDS     =           0.2974
      STREAM LEAKAGE     =    80891952.0000        STREAM LEAKAGE     =          11.3025
        UZF RECHARGE     =           0.0000          UZF RECHARGE     =           0.0000
               GW ET     =        9869.1953                 GW ET     =       4.4240E-03
     SURFACE LEAKAGE     =           0.0000       SURFACE LEAKAGE     =           0.0000
           AG WELLS      =           0.0000             AG WELLS      =           0.0000

               TOTAL OUT =   105598984.0000                 TOTAL OUT =          14.3232

                IN - OUT =       -5152.0000                  IN - OUT =      -4.5967E-04

     PERCENT DISCREPANCY =          -0.00         PERCENT DISCREPANCY =          -0.00






         TIME SUMMARY AT END OF TIME STEP   30 IN STRESS PERIOD    4
                    SECONDS     MINUTES      HOURS       DAYS        YEARS
                    -----------------------------------------------------------
   TIME STEP LENGTH  87667.      1461.1      24.352      1.0147     2.77799E-03
 STRESS PERIOD TIME 2.63000E+06  43833.      730.56      30.440     8.33397E-02
         TOTAL TIME 7.97639E+06 1.32940E+05  2215.7      92.319     0.25276    
1
1
                            STRESS PERIOD NO.    5, LENGTH =   2630000.    
                            -----------------------------------------------

                              NUMBER OF TIME STEPS =    30

                               MULTIPLIER FOR DELT =     1.000

                            INITIAL TIME STEP SIZE =   87666.66    

 REUSING NON-PARAMETER GHB CELLS FROM LAST STRESS PERIOD

      2 GHB CELLS

 REUSING STREAM SEGMENT DATA FROM LAST STRESS PERIOD



            AREAL INFILTRATION RATE
 READING ON UNIT   19 WITH FORMAT: (FREE)              

            1           2           3           4           5           6           7           8           9          10
 ........................................................................................................................
   1   1.0000E-10  2.0000E-10   0.000       0.000       0.000       0.000       0.000       0.000       0.000       0.000    
   2   2.0000E-10  1.0000E-10  2.0000E-10   0.000       0.000      8.0000E-10  8.0000E-10  5.0000E-10   0.000       0.000    
   3    0.000      5.0000E-10  1.0000E-10  1.0000E-10  8.0000E-10  8.0000E-10  5.0000E-10  5.0000E-10   0.000       0.000    
   4   8.0000E-10  5.0000E-10  1.0000E-10  1.0000E-10  1.0000E-10  1.0000E-10  1.0000E-10  1.0000E-10  2.0000E-10   0.000    
   5   8.0000E-10  5.0000E-10  1.0000E-10  1.0000E-10  1.0000E-10  1.0000E-10  1.0000E-10  1.0000E-10  1.0000E-10  1.0000E-10
   6   8.0000E-10  5.0000E-10  5.0000E-10  2.0000E-10  2.0000E-10  1.0000E-10  1.0000E-10  1.0000E-10  1.0000E-10  5.0000E-10
   7   8.0000E-10  5.0000E-10  5.0000E-10  2.0000E-10  2.0000E-10  1.0000E-10  1.0000E-10  2.0000E-10  2.0000E-10   0.000    
   8    0.000      5.0000E-10  5.0000E-10  2.0000E-10  2.0000E-10  1.0000E-10  1.0000E-10  2.0000E-10  5.0000E-10   0.000    
   9    0.000      5.0000E-10  5.0000E-10  2.0000E-10  2.0000E-10  1.0000E-10  1.0000E-10  2.0000E-10  5.0000E-10   0.000    
  10    0.000      5.0000E-10  5.0000E-10  2.0000E-10  2.0000E-10  1.0000E-10  1.0000E-10  2.0000E-10  5.0000E-10  8.0000E-10
  11    0.000      1.0000E-10  1.0000E-10  1.0000E-10  1.0000E-10  1.0000E-10  1.0000E-10  2.0000E-10  5.0000E-10   0.000    
  12   1.0000E-10  1.0000E-10  1.0000E-10  1.0000E-10  1.0000E-10  1.0000E-10  1.0000E-10  1.0000E-10  2.0000E-10   0.000    
  13   1.0000E-10  1.0000E-10  2.0000E-10  2.0000E-10  2.0000E-10  2.0000E-10  2.0000E-10  1.0000E-10  1.0000E-10   0.000    
  14    0.000      2.0000E-10  5.0000E-10  5.0000E-10  5.0000E-10  5.0000E-10  5.0000E-10  2.0000E-10  1.0000E-10   0.000    
  15    0.000       0.000      8.0000E-10  8.0000E-10  8.0000E-10  8.0000E-10   0.000       0.000       0.000       0.000    

                  ET RATE =  2.500000E-08

 USING ET EXTINCTION DEPTH FROM PREVIOUS STRESS PERIOD. CURRENT PERIOD IS:       5

 USING EXTINCTION WATER CONTENT FROM PREVIOUS STRESS PERIOD. CURRENT PERIOD IS:       5

 USING AIR ENTRY PRESSURE FROM PREVIOUS STRESS PERIOD. CURRENT PERIOD IS:       5

 USING ROOT PRESSURE HEAD FROM PREVIOUS STRESS PERIOD. CURRENT PERIOD IS:       5

 USING ROOT ACTIVITY FROM PREVIOUS STRESS PERIOD. CURRENT PERIOD IS:       5

 PROCESSING AG STRESS PERIOD DATA

 READING AG STRESS PERIOD DATA

 READING IRRIGATION WELL

 END PROCESSING AG STRESS PERIOD DATA OPTIONS
 
 SOLVING FOR HEAD 
                                                   Max.-Head-Change                         Max.-Flux-Residual
  Residual-Control   Outer-Iter.   Inner-Iter.     Column Row Layer    Maximum-Head-Change  Column Row Layer    Maximum-Flux-Residual          L2-NORM 
          0                 1           2             4   13     1      -0.1883718453E-01       4   13    1        -0.1104090507E+01      0.2347075890E+01
          0                 2           2             4   13     1       0.1817341886E-02       4   13    1         0.1095192980E+00      0.2310438000E+00
          0                 3           2             4   13     1      -0.1228738067E-03       4   13    1        -0.7613531056E-02      0.1587284113E-01
          0                 4           1             4   13     1       0.5312839886E-05       4   13    1         0.3387370343E-03      0.6445714861E-03

    ------------------------------------------------
       NWT REQUIRED            4 OUTER ITERATIONS 
       AND A TOTAL OF          7 INNER ITERATIONS.
    ------------------------------------------------

 OUTPUT CONTROL FOR STRESS PERIOD    5   TIME STEP    1
    PRINT BUDGET
    SAVE BUDGET
 UBDSV1 SAVING "         STORAGE" ON UNIT 102 AT TIME STEP  1, STRESS PERIOD   5
 UBDSV2 SAVING "   CONSTANT HEAD" ON UNIT 102 AT TIME STEP  1, STRESS PERIOD   5
 UBDSV1 SAVING "FLOW RIGHT FACE " ON UNIT 102 AT TIME STEP  1, STRESS PERIOD   5
 UBDSV1 SAVING "FLOW FRONT FACE " ON UNIT 102 AT TIME STEP  1, STRESS PERIOD   5

  HEAD DEP BOUNDS   PERIOD    5   STEP     1
 BOUNDARY      1   LAYER   1   ROW    13   COL     1   RATE   -0.297160    
 BOUNDARY      2   LAYER   1   ROW    14   COL     9   RATE    0.285471    



 STREAM LISTING     PERIOD      5   STEP        1

 LAYER ROW COL. STREAM  RCH.  FLOW INTO     FLOW TO   FLOW OUT OF   OVRLND.     DIRECT     STREAM       STREAM     STREAM     STREAM   STREAMBED  STREAMBED
                SEG.NO.  NO.  STRM. RCH.    AQUIFER    STRM. RCH.    RUNOFF     PRECIP       ET          HEAD       DEPTH      WIDTH   CONDCTNC.   GRADIENT

   1    1    1     1     1    2.8000E+01  2.5860E-01   2.7741E+01  0.000E+00  0.000E+00  0.000E+00  1.09427E+03  1.221E+00  1.361E+01  6.126E-02  1.407E+00
   1    2    2     1     2    2.7741E+01  4.0002E-01   2.7341E+01  0.000E+00  0.000E+00  0.000E+00  1.08928E+03  1.217E+00  1.355E+01  9.487E-02  1.406E+00
   1    3    3     1     3    2.7341E+01  3.4070E-01   2.7001E+01  0.000E+00  0.000E+00  0.000E+00  1.08363E+03  1.212E+00  1.348E+01  8.090E-02  1.404E+00
   1    3    4     1     4    2.7001E+01  3.1335E-01   2.6687E+01  0.000E+00  0.000E+00  0.000E+00  1.07861E+03  1.207E+00  1.342E+01  7.448E-02  1.402E+00
   1    4    5     2     1    2.4687E+01  3.2711E-01   2.4360E+01  0.000E+00  0.000E+00  0.000E+00  1.07313E+03  1.194E+00  1.200E+01  7.800E-02  1.398E+00
   1    5    6     2     2    2.4360E+01  2.5111E-01   2.4109E+01  0.000E+00  0.000E+00  0.000E+00  1.06769E+03  1.185E+00  1.200E+01  6.000E-02  1.395E+00
   1    6    6     2     3    2.4109E+01  2.5067E-01   2.3858E+01  0.000E+00  0.000E+00  0.000E+00  1.06297E+03  1.178E+00  1.200E+01  6.000E-02  1.393E+00
   1    7    6     2     4    2.3858E+01  2.5023E-01   2.3608E+01  0.000E+00  0.000E+00  0.000E+00  1.05825E+03  1.170E+00  1.200E+01  6.000E-02  1.390E+00
   1    8    6     2     5    2.3608E+01  2.4978E-01   2.3358E+01  0.000E+00  0.000E+00  0.000E+00  1.05352E+03  1.163E+00  1.200E+01  6.000E-02  1.388E+00
   1    3    5     3     1    2.0000E+00  2.8252E-01   1.7175E+00  0.000E+00  0.000E+00  0.000E+00  1.07555E+03  1.909E+00  9.636E+00  7.227E-02  1.955E+00
   1    3    6     3     2    1.7175E+00  2.4905E-01   1.4684E+00  0.000E+00  0.000E+00  0.000E+00  1.07264E+03  1.727E+00  8.909E+00  6.682E-02  1.864E+00
   1    3    7     3     3    1.4684E+00  1.9718E-01   1.2712E+00  0.000E+00  0.000E+00  0.000E+00  1.06987E+03  1.555E+00  8.218E+00  5.547E-02  1.777E+00
   1    4    8     3     4    1.2712E+00  2.2567E-01   1.0456E+00  0.000E+00  0.000E+00  0.000E+00  1.06682E+03  1.364E+00  7.455E+00  6.709E-02  1.682E+00
   1    5    8     3     5    1.0456E+00  1.5790E-01   8.8768E-01  0.000E+00  0.000E+00  0.000E+00  1.06362E+03  1.164E+00  6.655E+00  4.991E-02  1.582E+00
   1    6    8     3     6    8.8768E-01  5.5980E-02   8.3170E-01  0.000E+00  0.000E+00  0.000E+00  1.06158E+03  1.036E+00  6.145E+00  1.844E-02  1.518E+00
   1    5   10     4     1    1.0000E+01  9.0919E-02   9.9091E+00  0.000E+00  0.000E+00  0.000E+00  1.07836E+03  6.368E-01  1.000E+01  2.500E-02  1.212E+00
   1    5    9     4     2    9.9091E+00  1.8158E-01   9.7275E+00  0.000E+00  0.000E+00  0.000E+00  1.07154E+03  6.315E-01  1.000E+01  5.000E-02  1.211E+00
   1    6    8     4     3    9.7275E+00  1.2689E-01   9.6006E+00  0.000E+00  0.000E+00  0.000E+00  1.06381E+03  6.256E-01  1.000E+01  3.500E-02  1.209E+00
   1    6    8     5     1    1.0432E+01  2.2686E-01   1.0205E+01  0.000E+00  0.000E+00  0.000E+00  1.05868E+03  6.790E-01  1.542E+01  6.166E-02  1.226E+00
   1    7    7     5     2    1.0205E+01  2.7894E-01   9.9265E+00  0.000E+00  0.000E+00  0.000E+00  1.05417E+03  6.732E-01  1.519E+01  7.594E-02  1.224E+00
   1    8    7     5     3    9.9265E+00  1.9221E-01   9.7343E+00  0.000E+00  0.000E+00  0.000E+00  1.04992E+03  6.676E-01  1.497E+01  5.241E-02  1.223E+00
   1    8    6     5     4    9.7343E+00  1.3577E-01   9.5985E+00  0.000E+00  0.000E+00  0.000E+00  1.04691E+03  6.637E-01  1.482E+01  3.706E-02  1.221E+00
   1    9    6     6     1    3.2957E+01  2.6627E-01   3.2691E+01  0.000E+00  0.000E+00  0.000E+00  1.04417E+03  1.438E+00  1.200E+01  6.000E-02  1.479E+00
   1   10    7     6     2    3.2691E+01  2.6584E-01   3.2425E+01  0.000E+00  0.000E+00  0.000E+00  1.03961E+03  1.431E+00  1.200E+01  6.000E-02  1.477E+00
   1   11    7     6     3    3.2425E+01  2.6542E-01   3.2159E+01  0.000E+00  0.000E+00  0.000E+00  1.03506E+03  1.424E+00  1.200E+01  6.000E-02  1.475E+00
   1   12    7     6     4    3.2159E+01  2.6500E-01   3.1894E+01  0.000E+00  0.000E+00  0.000E+00  1.03051E+03  1.417E+00  1.200E+01  6.000E-02  1.472E+00
   1   13    7     6     5    3.1894E+01  3.5108E-03   3.1891E+01  0.000E+00  0.000E+00  0.000E+00  1.02732E+03  1.413E+00  1.200E+01  2.400E-02  4.876E-02
   1   14    9     7     1    1.5000E+02  1.3316E+00   1.4867E+02  0.000E+00  0.000E+00  0.000E+00  1.03987E+03  2.288E+00  5.529E+01  5.593E-01  7.936E-01
   1   13    8     7     2    1.4867E+02  1.8147E+00   1.4685E+02  0.000E+00  0.000E+00  0.000E+00  1.03478E+03  2.279E+00  5.526E+01  6.148E-01  9.839E-01
   1   13    7     7     3    1.4685E+02  1.4041E+00   1.4545E+02  0.000E+00  0.000E+00  0.000E+00  1.02969E+03  2.271E+00  5.522E+01  5.585E-01  8.381E-01
   1   13    6     8     1    1.7734E+02  8.5541E-01   1.7649E+02  0.000E+00  0.000E+00  0.000E+00  1.02487E+03  2.997E+00  4.345E+01  4.428E-01  6.440E-01
   1   13    5     8     2    1.7649E+02  9.1594E-02   1.7639E+02  0.000E+00  0.000E+00  0.000E+00  1.01862E+03  2.994E+00  4.341E+01  4.423E-01  6.902E-02
   1   13    4     8     3    1.7639E+02 -3.3089E+00   1.7970E+02  0.000E+00  0.000E+00  0.000E+00  1.01238E+03  3.004E+00  4.356E+01  4.438E+00 -2.485E-01
   1   13    3     8     4    1.7970E+02 -4.4048E+00   1.8411E+02  0.000E+00  0.000E+00  0.000E+00  1.00615E+03  3.028E+00  4.391E+01  4.474E+00 -3.282E-01
   1   13    2     8     5    1.8411E+02 -3.3542E+00   1.8746E+02  0.000E+00  0.000E+00  0.000E+00  9.99927E+02  3.052E+00  4.426E+01  4.510E+00 -2.479E-01
   1   13    1     8     6    1.8746E+02 -2.3820E+00   1.8984E+02  0.000E+00  0.000E+00  0.000E+00  9.94945E+02  3.070E+00  4.451E+01  2.722E+00 -2.918E-01



 UBDSV3 SAVING "           GW ET" ON UNIT  61 AT TIME STEP  1, STRESS PERIOD   5
 UBDSV3 SAVING "    UZF RECHARGE" ON UNIT  61 AT TIME STEP  1, STRESS PERIOD   5
 UBDSV3 SAVING " SURFACE LEAKAGE" ON UNIT  61 AT TIME STEP  1, STRESS PERIOD   5
 UBDSV3 SAVING "       HORT+DUNN" ON UNIT  61 AT TIME STEP  1, STRESS PERIOD   5
 UBDSV3 SAVING "  STORAGE CHANGE" ON UNIT  61 AT TIME STEP  1, STRESS PERIOD   5


UNSATURATED ZONE PACKAGE VOLUMETRIC BUDGET FOR  TIME STEP     1 STRESS PERIOD    5
  ------------------------------------------------------------------------------



     CUMULATIVE VOLUMES      L**3       RATES FOR THIS TIME STEP      L**3/T
     ------------------                 ------------------------

           IN:                                      IN:
           ---                                      ---
        INFILTRATION =     7160508.2782          INFILTRATION =           4.5686

          OUT:                                     OUT:
          ----                                     ----
              UZF ET =     7001697.7947                UZF ET =          12.3677
        UZF RECHARGE =       73224.0000          UZF RECHARGE =       0.0000E+00

            IN - OUT =       85586.4835              IN - OUT =          -7.7992

          STORAGE:                                 STORAGE:
          --------                                 --------
      STORAGE CHANGE =       85586.5331        STORAGE CHANGE =          -7.7992

 PERCENT DISCREPANCY IS DIFFERENCE BETWEEN IN-OUT MINUS CHANGE IN STORAGE
 DIVIDED BY THE AVERAGE OF IN AND OUT TIMES 100

 PERCENT DISCREPANCY =           0.00     PERCENT DISCREPANCY =           0.00






 

            AG WELLS      PERIOD    5   STEP   1
 AG WELL      1   LAYER   1   ROW     6   COL     4   RATE   -0.620175    
 AG WELL      2   LAYER   1   ROW     6   COL     5   RATE   -0.620175    
 AG WELL      3   LAYER   1   ROW     7   COL     4   RATE   -0.620175    
 AG WELL      4   LAYER   1   ROW     7   COL     5   RATE   -0.620175    
 AG WELL      5   LAYER   1   ROW     8   COL     4   RATE   -0.620175    
 AG WELL      6   LAYER   1   ROW     8   COL     5   RATE   -0.620175    
 
 

        GW IRRIGATION     PERIOD    5   STEP   1
 AG WELL      1   ROW     6   COL     4   RATE    0.620175    
 AG WELL      2   ROW     6   COL     5   RATE    0.620175    
 AG WELL      3   ROW     7   COL     4   RATE    0.620175    
 AG WELL      4   ROW     7   COL     5   RATE    0.620175    
 AG WELL      5   ROW     8   COL     4   RATE    0.620175    
 AG WELL      6   ROW     8   COL     5   RATE    0.620175    
 
1
  VOLUMETRIC BUDGET FOR AGRICULTURAL FIELDS AT  END OF TIME STEP    1, STRESS PERIOD   5
  ------------------------------------------------------------------------------

     CUMULATIVE VOLUMES      L**3       RATES FOR THIS TIME STEP      L**3/T
     ------------------                 ------------------------

           IN:                                      IN:
           ---                                      ---
               AG WELLS  =      326212.1562                 AG WELLS  =           3.7211
      DIVERSION SEGMENTS =           0.0000        DIVERSION SEGMENTS =           0.0000
           GW IRRIGATION =           0.0000             GW IRRIGATION =           0.0000
           SW IRRIGATION =           0.0000             SW IRRIGATION =           0.0000
        SYSTEM LOSSES GW =           0.0000          SYSTEM LOSSES GW =           0.0000
        SYSTEM LOSSES SW =           0.0000          SYSTEM LOSSES SW =           0.0000

                TOTAL IN =      326212.1562                  TOTAL IN =           3.7211

          OUT:                                     OUT:
          ----                                     ----
               AG WELLS  =           0.0000                 AG WELLS  =           0.0000
      DIVERSION SEGMENTS =           0.0000        DIVERSION SEGMENTS =           0.0000
           GW IRRIGATION =      326212.1562             GW IRRIGATION =           3.7211
           SW IRRIGATION =           0.0000             SW IRRIGATION =           0.0000
        SYSTEM LOSSES GW =           0.0000          SYSTEM LOSSES GW =           0.0000
        SYSTEM LOSSES SW =           0.0000          SYSTEM LOSSES SW =           0.0000

               TOTAL OUT =      326212.1562                 TOTAL OUT =           3.7211

                IN - OUT =           0.0000                  IN - OUT =           0.0000

     PERCENT DISCREPANCY =           0.00         PERCENT DISCREPANCY =           0.00



1
  VOLUMETRIC BUDGET FOR ENTIRE MODEL AT END OF TIME STEP    1, STRESS PERIOD   5
  ------------------------------------------------------------------------------

     CUMULATIVE VOLUMES      L**3       RATES FOR THIS TIME STEP      L**3/T
     ------------------                 ------------------------

           IN:                                      IN:
           ---                                      ---
             STORAGE     =     4919735.5000               STORAGE     =           7.4134
       CONSTANT HEAD     =           0.0000         CONSTANT HEAD     =           0.0000
     HEAD DEP BOUNDS     =     2301647.7500       HEAD DEP BOUNDS     =           0.2855
      STREAM LEAKAGE     =    99991656.0000        STREAM LEAKAGE     =          11.6064
        UZF RECHARGE     =       73223.9531          UZF RECHARGE     =           0.0000
               GW ET     =           0.0000                 GW ET     =           0.0000
     SURFACE LEAKAGE     =           0.0000       SURFACE LEAKAGE     =           0.0000
           AG WELLS      =           0.0000             AG WELLS      =           0.0000

                TOTAL IN =   107286264.0000                  TOTAL IN =          19.3053

          OUT:                                     OUT:
          ----                                     ----
             STORAGE     =    22502044.0000               STORAGE     =           1.5125
       CONSTANT HEAD     =           0.0000         CONSTANT HEAD     =           0.0000
     HEAD DEP BOUNDS     =     2353759.2500       HEAD DEP BOUNDS     =           0.2972
      STREAM LEAKAGE     =    82071056.0000        STREAM LEAKAGE     =          13.4499
        UZF RECHARGE     =           0.0000          UZF RECHARGE     =           0.0000
               GW ET     =       38340.7812                 GW ET     =           0.3248
     SURFACE LEAKAGE     =           0.0000       SURFACE LEAKAGE     =           0.0000
           AG WELLS      =      326212.1562             AG WELLS      =           3.7211

               TOTAL OUT =   107291424.0000                 TOTAL OUT =          19.3053

                IN - OUT =       -5160.0000                  IN - OUT =      -1.7166E-05

     PERCENT DISCREPANCY =          -0.00         PERCENT DISCREPANCY =          -0.00






         TIME SUMMARY AT END OF TIME STEP    1 IN STRESS PERIOD    5
                    SECONDS     MINUTES      HOURS       DAYS        YEARS
                    -----------------------------------------------------------
   TIME STEP LENGTH  87667.      1461.1      24.352      1.0147     2.77799E-03
 STRESS PERIOD TIME  87667.      1461.1      24.352      1.0147     2.77799E-03
         TOTAL TIME 8.06406E+06 1.34401E+05  2240.0      93.334     0.25553    
1
 
 SOLVING FOR HEAD 
                                                   Max.-Head-Change                         Max.-Flux-Residual
  Residual-Control   Outer-Iter.   Inner-Iter.     Column Row Layer    Maximum-Head-Change  Column Row Layer    Maximum-Flux-Residual          L2-NORM 
          0                 1           2             4   13     1      -0.1670872815E-01       4   13    1        -0.9789543473E+00      0.2200923156E+01
          0                 2           2             4   13     1       0.1611865864E-02       4   13    1         0.9709860867E-01      0.2170940957E+00
          0                 3           1             4   13     1      -0.1085030389E-03       4   13    1        -0.6720208326E-02      0.1491902034E-01
          0                 4           1             4   13     1       0.4235105666E-05       4   13    1         0.2697070131E-03      0.5925378270E-03

    ------------------------------------------------
       NWT REQUIRED            4 OUTER ITERATIONS 
       AND A TOTAL OF          6 INNER ITERATIONS.
    ------------------------------------------------

 OUTPUT CONTROL FOR STRESS PERIOD    5   TIME STEP    2
    PRINT BUDGET
    SAVE BUDGET
 UBDSV1 SAVING "         STORAGE" ON UNIT 102 AT TIME STEP  2, STRESS PERIOD   5
 UBDSV2 SAVING "   CONSTANT HEAD" ON UNIT 102 AT TIME STEP  2, STRESS PERIOD   5
 UBDSV1 SAVING "FLOW RIGHT FACE " ON UNIT 102 AT TIME STEP  2, STRESS PERIOD   5
 UBDSV1 SAVING "FLOW FRONT FACE " ON UNIT 102 AT TIME STEP  2, STRESS PERIOD   5

  HEAD DEP BOUNDS   PERIOD    5   STEP     2
 BOUNDARY      1   LAYER   1   ROW    13   COL     1   RATE   -0.296895    
 BOUNDARY      2   LAYER   1   ROW    14   COL     9   RATE    0.285471    



 STREAM LISTING     PERIOD      5   STEP        2

 LAYER ROW COL. STREAM  RCH.  FLOW INTO     FLOW TO   FLOW OUT OF   OVRLND.     DIRECT     STREAM       STREAM     STREAM     STREAM   STREAMBED  STREAMBED
                SEG.NO.  NO.  STRM. RCH.    AQUIFER    STRM. RCH.    RUNOFF     PRECIP       ET          HEAD       DEPTH      WIDTH   CONDCTNC.   GRADIENT

   1    1    1     1     1    2.8000E+01  2.5860E-01   2.7741E+01  0.000E+00  0.000E+00  0.000E+00  1.09427E+03  1.221E+00  1.361E+01  6.126E-02  1.407E+00
   1    2    2     1     2    2.7741E+01  4.0002E-01   2.7341E+01  0.000E+00  0.000E+00  0.000E+00  1.08928E+03  1.217E+00  1.355E+01  9.487E-02  1.406E+00
   1    3    3     1     3    2.7341E+01  3.4070E-01   2.7001E+01  0.000E+00  0.000E+00  0.000E+00  1.08363E+03  1.212E+00  1.348E+01  8.090E-02  1.404E+00
   1    3    4     1     4    2.7001E+01  3.1335E-01   2.6687E+01  0.000E+00  0.000E+00  0.000E+00  1.07861E+03  1.207E+00  1.342E+01  7.448E-02  1.402E+00
   1    4    5     2     1    2.4687E+01  3.2711E-01   2.4360E+01  0.000E+00  0.000E+00  0.000E+00  1.07313E+03  1.194E+00  1.200E+01  7.800E-02  1.398E+00
   1    5    6     2     2    2.4360E+01  2.5111E-01   2.4109E+01  0.000E+00  0.000E+00  0.000E+00  1.06769E+03  1.185E+00  1.200E+01  6.000E-02  1.395E+00
   1    6    6     2     3    2.4109E+01  2.5067E-01   2.3858E+01  0.000E+00  0.000E+00  0.000E+00  1.06297E+03  1.178E+00  1.200E+01  6.000E-02  1.393E+00
   1    7    6     2     4    2.3858E+01  2.5023E-01   2.3608E+01  0.000E+00  0.000E+00  0.000E+00  1.05825E+03  1.170E+00  1.200E+01  6.000E-02  1.390E+00
   1    8    6     2     5    2.3608E+01  2.4978E-01   2.3358E+01  0.000E+00  0.000E+00  0.000E+00  1.05352E+03  1.163E+00  1.200E+01  6.000E-02  1.388E+00
   1    3    5     3     1    2.0000E+00  2.8252E-01   1.7175E+00  0.000E+00  0.000E+00  0.000E+00  1.07555E+03  1.909E+00  9.636E+00  7.227E-02  1.955E+00
   1    3    6     3     2    1.7175E+00  2.4905E-01   1.4684E+00  0.000E+00  0.000E+00  0.000E+00  1.07264E+03  1.727E+00  8.909E+00  6.682E-02  1.864E+00
   1    3    7     3     3    1.4684E+00  1.9718E-01   1.2712E+00  0.000E+00  0.000E+00  0.000E+00  1.06987E+03  1.555E+00  8.218E+00  5.547E-02  1.777E+00
   1    4    8     3     4    1.2712E+00  2.2567E-01   1.0456E+00  0.000E+00  0.000E+00  0.000E+00  1.06682E+03  1.364E+00  7.455E+00  6.709E-02  1.682E+00
   1    5    8     3     5    1.0456E+00  1.5790E-01   8.8768E-01  0.000E+00  0.000E+00  0.000E+00  1.06362E+03  1.164E+00  6.655E+00  4.991E-02  1.582E+00
   1    6    8     3     6    8.8768E-01  5.5980E-02   8.3170E-01  0.000E+00  0.000E+00  0.000E+00  1.06158E+03  1.036E+00  6.145E+00  1.844E-02  1.518E+00
   1    5   10     4     1    1.0000E+01  9.0919E-02   9.9091E+00  0.000E+00  0.000E+00  0.000E+00  1.07836E+03  6.368E-01  1.000E+01  2.500E-02  1.212E+00
   1    5    9     4     2    9.9091E+00  1.8158E-01   9.7275E+00  0.000E+00  0.000E+00  0.000E+00  1.07154E+03  6.315E-01  1.000E+01  5.000E-02  1.211E+00
   1    6    8     4     3    9.7275E+00  1.2689E-01   9.6006E+00  0.000E+00  0.000E+00  0.000E+00  1.06381E+03  6.256E-01  1.000E+01  3.500E-02  1.209E+00
   1    6    8     5     1    1.0432E+01  2.2686E-01   1.0205E+01  0.000E+00  0.000E+00  0.000E+00  1.05868E+03  6.790E-01  1.542E+01  6.166E-02  1.226E+00
   1    7    7     5     2    1.0205E+01  2.7894E-01   9.9265E+00  0.000E+00  0.000E+00  0.000E+00  1.05417E+03  6.732E-01  1.519E+01  7.594E-02  1.224E+00
   1    8    7     5     3    9.9265E+00  1.9221E-01   9.7343E+00  0.000E+00  0.000E+00  0.000E+00  1.04992E+03  6.676E-01  1.497E+01  5.241E-02  1.223E+00
   1    8    6     5     4    9.7343E+00  1.3577E-01   9.5985E+00  0.000E+00  0.000E+00  0.000E+00  1.04691E+03  6.637E-01  1.482E+01  3.706E-02  1.221E+00
   1    9    6     6     1    3.2957E+01  2.6627E-01   3.2691E+01  0.000E+00  0.000E+00  0.000E+00  1.04417E+03  1.438E+00  1.200E+01  6.000E-02  1.479E+00
   1   10    7     6     2    3.2691E+01  2.6584E-01   3.2425E+01  0.000E+00  0.000E+00  0.000E+00  1.03961E+03  1.431E+00  1.200E+01  6.000E-02  1.477E+00
   1   11    7     6     3    3.2425E+01  2.6542E-01   3.2159E+01  0.000E+00  0.000E+00  0.000E+00  1.03506E+03  1.424E+00  1.200E+01  6.000E-02  1.475E+00
   1   12    7     6     4    3.2159E+01  2.6500E-01   3.1894E+01  0.000E+00  0.000E+00  0.000E+00  1.03051E+03  1.417E+00  1.200E+01  6.000E-02  1.472E+00
   1   13    7     6     5    3.1894E+01  3.4993E-03   3.1891E+01  0.000E+00  0.000E+00  0.000E+00  1.02732E+03  1.413E+00  1.200E+01  2.400E-02  4.860E-02
   1   14    9     7     1    1.5000E+02  1.3316E+00   1.4867E+02  0.000E+00  0.000E+00  0.000E+00  1.03987E+03  2.288E+00  5.529E+01  5.593E-01  7.936E-01
   1   13    8     7     2    1.4867E+02  1.8145E+00   1.4685E+02  0.000E+00  0.000E+00  0.000E+00  1.03478E+03  2.279E+00  5.526E+01  6.148E-01  9.838E-01
   1   13    7     7     3    1.4685E+02  1.4038E+00   1.4545E+02  0.000E+00  0.000E+00  0.000E+00  1.02969E+03  2.271E+00  5.522E+01  5.585E-01  8.379E-01
   1   13    6     8     1    1.7734E+02  8.5616E-01   1.7648E+02  0.000E+00  0.000E+00  0.000E+00  1.02487E+03  2.997E+00  4.345E+01  4.428E-01  6.445E-01
   1   13    5     8     2    1.7648E+02  9.2005E-02   1.7639E+02  0.000E+00  0.000E+00  0.000E+00  1.01862E+03  2.994E+00  4.341E+01  4.423E-01  6.933E-02
   1   13    4     8     3    1.7639E+02 -3.2421E+00   1.7963E+02  0.000E+00  0.000E+00  0.000E+00  1.01238E+03  3.004E+00  4.355E+01  4.438E+00 -2.435E-01
   1   13    3     8     4    1.7963E+02 -4.3427E+00   1.8398E+02  0.000E+00  0.000E+00  0.000E+00  1.00615E+03  3.027E+00  4.390E+01  4.473E+00 -3.236E-01
   1   13    2     8     5    1.8398E+02 -3.2978E+00   1.8728E+02  0.000E+00  0.000E+00  0.000E+00  9.99926E+02  3.051E+00  4.424E+01  4.508E+00 -2.438E-01
   1   13    1     8     6    1.8728E+02 -2.3653E+00   1.8964E+02  0.000E+00  0.000E+00  0.000E+00  9.94944E+02  3.069E+00  4.449E+01  2.720E+00 -2.898E-01



 UBDSV3 SAVING "           GW ET" ON UNIT  61 AT TIME STEP  2, STRESS PERIOD   5
 UBDSV3 SAVING "    UZF RECHARGE" ON UNIT  61 AT TIME STEP  2, STRESS PERIOD   5
 UBDSV3 SAVING " SURFACE LEAKAGE" ON UNIT  61 AT TIME STEP  2, STRESS PERIOD   5
 UBDSV3 SAVING "       HORT+DUNN" ON UNIT  61 AT TIME STEP  2, STRESS PERIOD   5
 UBDSV3 SAVING "  STORAGE CHANGE" ON UNIT  61 AT TIME STEP  2, STRESS PERIOD   5


UNSATURATED ZONE PACKAGE VOLUMETRIC BUDGET FOR  TIME STEP     2 STRESS PERIOD    5
  ------------------------------------------------------------------------------



     CUMULATIVE VOLUMES      L**3       RATES FOR THIS TIME STEP      L**3/T
     ------------------                 ------------------------

           IN:                                      IN:
           ---                                      ---
        INFILTRATION =     7560925.7584          INFILTRATION =           4.5675

          OUT:                                     OUT:
          ----                                     ----
              UZF ET =     7487024.6858                UZF ET =           5.5360
        UZF RECHARGE =       73224.0000          UZF RECHARGE =       0.0000E+00

            IN - OUT =         677.0726              IN - OUT =          -0.9685

          STORAGE:                                 STORAGE:
          --------                                 --------
      STORAGE CHANGE =         677.1332        STORAGE CHANGE =          -0.9685

 PERCENT DISCREPANCY IS DIFFERENCE BETWEEN IN-OUT MINUS CHANGE IN STORAGE
 DIVIDED BY THE AVERAGE OF IN AND OUT TIMES 100

 PERCENT DISCREPANCY =           0.00     PERCENT DISCREPANCY =           0.00






 

            AG WELLS      PERIOD    5   STEP   2
 AG WELL      1   LAYER   1   ROW     6   COL     4   RATE   -0.620000    
 AG WELL      2   LAYER   1   ROW     6   COL     5   RATE   -0.620000    
 AG WELL      3   LAYER   1   ROW     7   COL     4   RATE   -0.620000    
 AG WELL      4   LAYER   1   ROW     7   COL     5   RATE   -0.620000    
 AG WELL      5   LAYER   1   ROW     8   COL     4   RATE   -0.620000    
 AG WELL      6   LAYER   1   ROW     8   COL     5   RATE   -0.620000    
 
 

        GW IRRIGATION     PERIOD    5   STEP   2
 AG WELL      1   ROW     6   COL     4   RATE    0.620000    
 AG WELL      2   ROW     6   COL     5   RATE    0.620000    
 AG WELL      3   ROW     7   COL     4   RATE    0.620000    
 AG WELL      4   ROW     7   COL     5   RATE    0.620000    
 AG WELL      5   ROW     8   COL     4   RATE    0.620000    
 AG WELL      6   ROW     8   COL     5   RATE    0.620000    
 
1
  VOLUMETRIC BUDGET FOR AGRICULTURAL FIELDS AT  END OF TIME STEP    2, STRESS PERIOD   5
  ------------------------------------------------------------------------------

     CUMULATIVE VOLUMES      L**3       RATES FOR THIS TIME STEP      L**3/T
     ------------------                 ------------------------

           IN:                                      IN:
           ---                                      ---
               AG WELLS  =      652332.1250                 AG WELLS  =           3.7200
      DIVERSION SEGMENTS =           0.0000        DIVERSION SEGMENTS =           0.0000
           GW IRRIGATION =           0.0000             GW IRRIGATION =           0.0000
           SW IRRIGATION =           0.0000             SW IRRIGATION =           0.0000
        SYSTEM LOSSES GW =           0.0000          SYSTEM LOSSES GW =           0.0000
        SYSTEM LOSSES SW =           0.0000          SYSTEM LOSSES SW =           0.0000

                TOTAL IN =      652332.1250                  TOTAL IN =           3.7200

          OUT:                                     OUT:
          ----                                     ----
               AG WELLS  =           0.0000                 AG WELLS  =           0.0000
      DIVERSION SEGMENTS =           0.0000        DIVERSION SEGMENTS =           0.0000
           GW IRRIGATION =      652332.1250             GW IRRIGATION =           3.7200
           SW IRRIGATION =           0.0000             SW IRRIGATION =           0.0000
        SYSTEM LOSSES GW =           0.0000          SYSTEM LOSSES GW =           0.0000
        SYSTEM LOSSES SW =           0.0000          SYSTEM LOSSES SW =           0.0000

               TOTAL OUT =      652332.1250                 TOTAL OUT =           3.7200

                IN - OUT =           0.0000                  IN - OUT =           0.0000

     PERCENT DISCREPANCY =           0.00         PERCENT DISCREPANCY =           0.00



1
  VOLUMETRIC BUDGET FOR ENTIRE MODEL AT END OF TIME STEP    2, STRESS PERIOD   5
  ------------------------------------------------------------------------------

     CUMULATIVE VOLUMES      L**3       RATES FOR THIS TIME STEP      L**3/T
     ------------------                 ------------------------

           IN:                                      IN:
           ---                                      ---
             STORAGE     =     5542502.0000               STORAGE     =           7.1038
       CONSTANT HEAD     =           0.0000         CONSTANT HEAD     =           0.0000
     HEAD DEP BOUNDS     =     2326674.0000       HEAD DEP BOUNDS     =           0.2855
      STREAM LEAKAGE     =   101009216.0000        STREAM LEAKAGE     =          11.6071
        UZF RECHARGE     =       73223.9531          UZF RECHARGE     =           0.0000
               GW ET     =           0.0000                 GW ET     =           0.0000
     SURFACE LEAKAGE     =           0.0000       SURFACE LEAKAGE     =           0.0000
           AG WELLS      =           0.0000             AG WELLS      =           0.0000

                TOTAL IN =   108951616.0000                  TOTAL IN =          18.9964

          OUT:                                     OUT:
          ----                                     ----
             STORAGE     =    22628574.0000               STORAGE     =           1.4433
       CONSTANT HEAD     =           0.0000         CONSTANT HEAD     =           0.0000
     HEAD DEP BOUNDS     =     2379787.0000       HEAD DEP BOUNDS     =           0.2969
      STREAM LEAKAGE     =    83232464.0000        STREAM LEAKAGE     =          13.2480
        UZF RECHARGE     =           0.0000          UZF RECHARGE     =           0.0000
               GW ET     =       63605.7266                 GW ET     =           0.2882
     SURFACE LEAKAGE     =           0.0000       SURFACE LEAKAGE     =           0.0000
           AG WELLS      =      652332.1250             AG WELLS      =           3.7200

               TOTAL OUT =   108956768.0000                 TOTAL OUT =          18.9964

                IN - OUT =       -5152.0000                  IN - OUT =      -1.5259E-05

     PERCENT DISCREPANCY =          -0.00         PERCENT DISCREPANCY =          -0.00






         TIME SUMMARY AT END OF TIME STEP    2 IN STRESS PERIOD    5
                    SECONDS     MINUTES      HOURS       DAYS        YEARS
                    -----------------------------------------------------------
   TIME STEP LENGTH  87667.      1461.1      24.352      1.0147     2.77799E-03
 STRESS PERIOD TIME 1.75333E+05  2922.2      48.704      2.0293     5.55598E-03
         TOTAL TIME 8.15173E+06 1.35862E+05  2264.4      94.349     0.25831    
1
 
 SOLVING FOR HEAD 
                                                   Max.-Head-Change                         Max.-Flux-Residual
  Residual-Control   Outer-Iter.   Inner-Iter.     Column Row Layer    Maximum-Head-Change  Column Row Layer    Maximum-Flux-Residual          L2-NORM 
          0                 1           2             4   13     1      -0.1482687573E-01       4   13    1        -0.8683451802E+00      0.2072523617E+01
          0                 2           2             4   13     1       0.1430198375E-02       4   13    1         0.8611994371E-01      0.2046074462E+00
          0                 3           1             4   13     1      -0.9625196144E-04       4   13    1        -0.5958993292E-02      0.1407702239E-01

    ------------------------------------------------
       NWT REQUIRED            3 OUTER ITERATIONS 
       AND A TOTAL OF          5 INNER ITERATIONS.
    ------------------------------------------------

 OUTPUT CONTROL FOR STRESS PERIOD    5   TIME STEP    3
    PRINT BUDGET
    SAVE BUDGET
 UBDSV1 SAVING "         STORAGE" ON UNIT 102 AT TIME STEP  3, STRESS PERIOD   5
 UBDSV2 SAVING "   CONSTANT HEAD" ON UNIT 102 AT TIME STEP  3, STRESS PERIOD   5
 UBDSV1 SAVING "FLOW RIGHT FACE " ON UNIT 102 AT TIME STEP  3, STRESS PERIOD   5
 UBDSV1 SAVING "FLOW FRONT FACE " ON UNIT 102 AT TIME STEP  3, STRESS PERIOD   5

  HEAD DEP BOUNDS   PERIOD    5   STEP     3
 BOUNDARY      1   LAYER   1   ROW    13   COL     1   RATE   -0.296639    
 BOUNDARY      2   LAYER   1   ROW    14   COL     9   RATE    0.285472    



 STREAM LISTING     PERIOD      5   STEP        3

 LAYER ROW COL. STREAM  RCH.  FLOW INTO     FLOW TO   FLOW OUT OF   OVRLND.     DIRECT     STREAM       STREAM     STREAM     STREAM   STREAMBED  STREAMBED
                SEG.NO.  NO.  STRM. RCH.    AQUIFER    STRM. RCH.    RUNOFF     PRECIP       ET          HEAD       DEPTH      WIDTH   CONDCTNC.   GRADIENT

   1    1    1     1     1    2.8000E+01  2.5860E-01   2.7741E+01  0.000E+00  0.000E+00  0.000E+00  1.09427E+03  1.221E+00  1.361E+01  6.126E-02  1.407E+00
   1    2    2     1     2    2.7741E+01  4.0002E-01   2.7341E+01  0.000E+00  0.000E+00  0.000E+00  1.08928E+03  1.217E+00  1.355E+01  9.487E-02  1.406E+00
   1    3    3     1     3    2.7341E+01  3.4070E-01   2.7001E+01  0.000E+00  0.000E+00  0.000E+00  1.08363E+03  1.212E+00  1.348E+01  8.090E-02  1.404E+00
   1    3    4     1     4    2.7001E+01  3.1335E-01   2.6687E+01  0.000E+00  0.000E+00  0.000E+00  1.07861E+03  1.207E+00  1.342E+01  7.448E-02  1.402E+00
   1    4    5     2     1    2.4687E+01  3.2711E-01   2.4360E+01  0.000E+00  0.000E+00  0.000E+00  1.07313E+03  1.194E+00  1.200E+01  7.800E-02  1.398E+00
   1    5    6     2     2    2.4360E+01  2.5111E-01   2.4109E+01  0.000E+00  0.000E+00  0.000E+00  1.06769E+03  1.185E+00  1.200E+01  6.000E-02  1.395E+00
   1    6    6     2     3    2.4109E+01  2.5067E-01   2.3858E+01  0.000E+00  0.000E+00  0.000E+00  1.06297E+03  1.178E+00  1.200E+01  6.000E-02  1.393E+00
   1    7    6     2     4    2.3858E+01  2.5023E-01   2.3608E+01  0.000E+00  0.000E+00  0.000E+00  1.05825E+03  1.170E+00  1.200E+01  6.000E-02  1.390E+00
   1    8    6     2     5    2.3608E+01  2.4978E-01   2.3358E+01  0.000E+00  0.000E+00  0.000E+00  1.05352E+03  1.163E+00  1.200E+01  6.000E-02  1.388E+00
   1    3    5     3     1    2.0000E+00  2.8252E-01   1.7175E+00  0.000E+00  0.000E+00  0.000E+00  1.07555E+03  1.909E+00  9.636E+00  7.227E-02  1.955E+00
   1    3    6     3     2    1.7175E+00  2.4905E-01   1.4684E+00  0.000E+00  0.000E+00  0.000E+00  1.07264E+03  1.727E+00  8.909E+00  6.682E-02  1.864E+00
   1    3    7     3     3    1.4684E+00  1.9718E-01   1.2712E+00  0.000E+00  0.000E+00  0.000E+00  1.06987E+03  1.555E+00  8.218E+00  5.547E-02  1.777E+00
   1    4    8     3     4    1.2712E+00  2.2567E-01   1.0456E+00  0.000E+00  0.000E+00  0.000E+00  1.06682E+03  1.364E+00  7.455E+00  6.709E-02  1.682E+00
   1    5    8     3     5    1.0456E+00  1.5790E-01   8.8768E-01  0.000E+00  0.000E+00  0.000E+00  1.06362E+03  1.164E+00  6.655E+00  4.991E-02  1.582E+00
   1    6    8     3     6    8.8768E-01  5.5980E-02   8.3170E-01  0.000E+00  0.000E+00  0.000E+00  1.06158E+03  1.036E+00  6.145E+00  1.844E-02  1.518E+00
   1    5   10     4     1    1.0000E+01  9.0919E-02   9.9091E+00  0.000E+00  0.000E+00  0.000E+00  1.07836E+03  6.368E-01  1.000E+01  2.500E-02  1.212E+00
   1    5    9     4     2    9.9091E+00  1.8158E-01   9.7275E+00  0.000E+00  0.000E+00  0.000E+00  1.07154E+03  6.315E-01  1.000E+01  5.000E-02  1.211E+00
   1    6    8     4     3    9.7275E+00  1.2689E-01   9.6006E+00  0.000E+00  0.000E+00  0.000E+00  1.06381E+03  6.256E-01  1.000E+01  3.500E-02  1.209E+00
   1    6    8     5     1    1.0432E+01  2.2686E-01   1.0205E+01  0.000E+00  0.000E+00  0.000E+00  1.05868E+03  6.790E-01  1.542E+01  6.166E-02  1.226E+00
   1    7    7     5     2    1.0205E+01  2.7894E-01   9.9265E+00  0.000E+00  0.000E+00  0.000E+00  1.05417E+03  6.732E-01  1.519E+01  7.594E-02  1.224E+00
   1    8    7     5     3    9.9265E+00  1.9221E-01   9.7343E+00  0.000E+00  0.000E+00  0.000E+00  1.04992E+03  6.676E-01  1.497E+01  5.241E-02  1.223E+00
   1    8    6     5     4    9.7343E+00  1.3577E-01   9.5985E+00  0.000E+00  0.000E+00  0.000E+00  1.04691E+03  6.637E-01  1.482E+01  3.706E-02  1.221E+00
   1    9    6     6     1    3.2957E+01  2.6627E-01   3.2691E+01  0.000E+00  0.000E+00  0.000E+00  1.04417E+03  1.438E+00  1.200E+01  6.000E-02  1.479E+00
   1   10    7     6     2    3.2691E+01  2.6584E-01   3.2425E+01  0.000E+00  0.000E+00  0.000E+00  1.03961E+03  1.431E+00  1.200E+01  6.000E-02  1.477E+00
   1   11    7     6     3    3.2425E+01  2.6542E-01   3.2159E+01  0.000E+00  0.000E+00  0.000E+00  1.03506E+03  1.424E+00  1.200E+01  6.000E-02  1.475E+00
   1   12    7     6     4    3.2159E+01  2.6500E-01   3.1894E+01  0.000E+00  0.000E+00  0.000E+00  1.03051E+03  1.417E+00  1.200E+01  6.000E-02  1.472E+00
   1   13    7     6     5    3.1894E+01  3.4885E-03   3.1891E+01  0.000E+00  0.000E+00  0.000E+00  1.02732E+03  1.413E+00  1.200E+01  2.400E-02  4.845E-02
   1   14    9     7     1    1.5000E+02  1.3316E+00   1.4867E+02  0.000E+00  0.000E+00  0.000E+00  1.03987E+03  2.288E+00  5.529E+01  5.593E-01  7.936E-01
   1   13    8     7     2    1.4867E+02  1.8143E+00   1.4685E+02  0.000E+00  0.000E+00  0.000E+00  1.03478E+03  2.279E+00  5.526E+01  6.148E-01  9.837E-01
   1   13    7     7     3    1.4685E+02  1.4036E+00   1.4545E+02  0.000E+00  0.000E+00  0.000E+00  1.02969E+03  2.271E+00  5.522E+01  5.585E-01  8.378E-01
   1   13    6     8     1    1.7734E+02  8.5687E-01   1.7648E+02  0.000E+00  0.000E+00  0.000E+00  1.02487E+03  2.997E+00  4.345E+01  4.428E-01  6.451E-01
   1   13    5     8     2    1.7648E+02  9.2469E-02   1.7639E+02  0.000E+00  0.000E+00  0.000E+00  1.01862E+03  2.994E+00  4.341E+01  4.423E-01  6.968E-02
   1   13    4     8     3    1.7639E+02 -3.1829E+00   1.7957E+02  0.000E+00  0.000E+00  0.000E+00  1.01238E+03  3.003E+00  4.355E+01  4.438E+00 -2.391E-01
   1   13    3     8     4    1.7957E+02 -4.2868E+00   1.8386E+02  0.000E+00  0.000E+00  0.000E+00  1.00615E+03  3.027E+00  4.389E+01  4.473E+00 -3.195E-01
   1   13    2     8     5    1.8386E+02 -3.2456E+00   1.8711E+02  0.000E+00  0.000E+00  0.000E+00  9.99925E+02  3.050E+00  4.423E+01  4.507E+00 -2.400E-01
   1   13    1     8     6    1.8711E+02 -2.3492E+00   1.8946E+02  0.000E+00  0.000E+00  0.000E+00  9.94943E+02  3.067E+00  4.448E+01  2.720E+00 -2.879E-01



 UBDSV3 SAVING "           GW ET" ON UNIT  61 AT TIME STEP  3, STRESS PERIOD   5
 UBDSV3 SAVING "    UZF RECHARGE" ON UNIT  61 AT TIME STEP  3, STRESS PERIOD   5
 UBDSV3 SAVING " SURFACE LEAKAGE" ON UNIT  61 AT TIME STEP  3, STRESS PERIOD   5
 UBDSV3 SAVING "       HORT+DUNN" ON UNIT  61 AT TIME STEP  3, STRESS PERIOD   5
 UBDSV3 SAVING "  STORAGE CHANGE" ON UNIT  61 AT TIME STEP  3, STRESS PERIOD   5


UNSATURATED ZONE PACKAGE VOLUMETRIC BUDGET FOR  TIME STEP     3 STRESS PERIOD    5
  ------------------------------------------------------------------------------



     CUMULATIVE VOLUMES      L**3       RATES FOR THIS TIME STEP      L**3/T
     ------------------                 ------------------------

           IN:                                      IN:
           ---                                      ---
        INFILTRATION =     7961343.2387          INFILTRATION =           4.5675

          OUT:                                     OUT:
          ----                                     ----
              UZF ET =     7887442.1661                UZF ET =           4.5675
        UZF RECHARGE =       73224.0000          UZF RECHARGE =       0.0000E+00

            IN - OUT =         677.0726              IN - OUT =       0.0000E+00

          STORAGE:                                 STORAGE:
          --------                                 --------
      STORAGE CHANGE =         677.1332        STORAGE CHANGE =       1.9273E-11

 PERCENT DISCREPANCY IS DIFFERENCE BETWEEN IN-OUT MINUS CHANGE IN STORAGE
 DIVIDED BY THE AVERAGE OF IN AND OUT TIMES 100

 PERCENT DISCREPANCY =          -0.00     PERCENT DISCREPANCY =           0.00






 

            AG WELLS      PERIOD    5   STEP   3
 AG WELL      1   LAYER   1   ROW     6   COL     4   RATE   -0.620000    
 AG WELL      2   LAYER   1   ROW     6   COL     5   RATE   -0.620000    
 AG WELL      3   LAYER   1   ROW     7   COL     4   RATE   -0.620000    
 AG WELL      4   LAYER   1   ROW     7   COL     5   RATE   -0.620000    
 AG WELL      5   LAYER   1   ROW     8   COL     4   RATE   -0.620000    
 AG WELL      6   LAYER   1   ROW     8   COL     5   RATE   -0.620000    
 
 

        GW IRRIGATION     PERIOD    5   STEP   3
 AG WELL      1   ROW     6   COL     4   RATE    0.620000    
 AG WELL      2   ROW     6   COL     5   RATE    0.620000    
 AG WELL      3   ROW     7   COL     4   RATE    0.620000    
 AG WELL      4   ROW     7   COL     5   RATE    0.620000    
 AG WELL      5   ROW     8   COL     4   RATE    0.620000    
 AG WELL      6   ROW     8   COL     5   RATE    0.620000    
 
1
  VOLUMETRIC BUDGET FOR AGRICULTURAL FIELDS AT  END OF TIME STEP    3, STRESS PERIOD   5
  ------------------------------------------------------------------------------

     CUMULATIVE VOLUMES      L**3       RATES FOR THIS TIME STEP      L**3/T
     ------------------                 ------------------------

           IN:                                      IN:
           ---                                      ---
               AG WELLS  =      978452.1250                 AG WELLS  =           3.7200
      DIVERSION SEGMENTS =           0.0000        DIVERSION SEGMENTS =           0.0000
           GW IRRIGATION =           0.0000             GW IRRIGATION =           0.0000
           SW IRRIGATION =           0.0000             SW IRRIGATION =           0.0000
        SYSTEM LOSSES GW =           0.0000          SYSTEM LOSSES GW =           0.0000
        SYSTEM LOSSES SW =           0.0000          SYSTEM LOSSES SW =           0.0000

                TOTAL IN =      978452.1250                  TOTAL IN =           3.7200

          OUT:                                     OUT:
          ----                                     ----
               AG WELLS  =           0.0000                 AG WELLS  =           0.0000
      DIVERSION SEGMENTS =           0.0000        DIVERSION SEGMENTS =           0.0000
           GW IRRIGATION =      978452.1250             GW IRRIGATION =           3.7200
           SW IRRIGATION =           0.0000             SW IRRIGATION =           0.0000
        SYSTEM LOSSES GW =           0.0000          SYSTEM LOSSES GW =           0.0000
        SYSTEM LOSSES SW =           0.0000          SYSTEM LOSSES SW =           0.0000

               TOTAL OUT =      978452.1250                 TOTAL OUT =           3.7200

                IN - OUT =           0.0000                  IN - OUT =           0.0000

     PERCENT DISCREPANCY =           0.00         PERCENT DISCREPANCY =           0.00



1
  VOLUMETRIC BUDGET FOR ENTIRE MODEL AT END OF TIME STEP    3, STRESS PERIOD   5
  ------------------------------------------------------------------------------

     CUMULATIVE VOLUMES      L**3       RATES FOR THIS TIME STEP      L**3/T
     ------------------                 ------------------------

           IN:                                      IN:
           ---                                      ---
             STORAGE     =     6141243.0000               STORAGE     =           6.8297
       CONSTANT HEAD     =           0.0000         CONSTANT HEAD     =           0.0000
     HEAD DEP BOUNDS     =     2351700.5000       HEAD DEP BOUNDS     =           0.2855
      STREAM LEAKAGE     =   102026840.0000        STREAM LEAKAGE     =          11.6079
        UZF RECHARGE     =       73223.9531          UZF RECHARGE     =           0.0000
               GW ET     =           0.0000                 GW ET     =           0.0000
     SURFACE LEAKAGE     =           0.0000       SURFACE LEAKAGE     =           0.0000
           AG WELLS      =           0.0000             AG WELLS      =           0.0000

                TOTAL IN =   110593008.0000                  TOTAL IN =          18.7231

          OUT:                                     OUT:
          ----                                     ----
             STORAGE     =    22749990.0000               STORAGE     =           1.3850
       CONSTANT HEAD     =           0.0000         CONSTANT HEAD     =           0.0000
     HEAD DEP BOUNDS     =     2405792.5000       HEAD DEP BOUNDS     =           0.2966
      STREAM LEAKAGE     =    84377784.0000        STREAM LEAKAGE     =          13.0645
        UZF RECHARGE     =           0.0000          UZF RECHARGE     =           0.0000
               GW ET     =       86004.5781                 GW ET     =           0.2555
     SURFACE LEAKAGE     =           0.0000       SURFACE LEAKAGE     =           0.0000
           AG WELLS      =      978452.1250             AG WELLS      =           3.7200

               TOTAL OUT =   110598032.0000                 TOTAL OUT =          18.7216

                IN - OUT =       -5024.0000                  IN - OUT =       1.5717E-03

     PERCENT DISCREPANCY =          -0.00         PERCENT DISCREPANCY =           0.01






         TIME SUMMARY AT END OF TIME STEP    3 IN STRESS PERIOD    5
                    SECONDS     MINUTES      HOURS       DAYS        YEARS
                    -----------------------------------------------------------
   TIME STEP LENGTH  87667.      1461.1      24.352      1.0147     2.77799E-03
 STRESS PERIOD TIME 2.63000E+05  4383.3      73.056      3.0440     8.33397E-03
         TOTAL TIME 8.23939E+06 1.37323E+05  2288.7      95.363     0.26109    
1
 
 SOLVING FOR HEAD 
                                                   Max.-Head-Change                         Max.-Flux-Residual
  Residual-Control   Outer-Iter.   Inner-Iter.     Column Row Layer    Maximum-Head-Change  Column Row Layer    Maximum-Flux-Residual          L2-NORM 
          0                 1           2             4   13     1      -0.1316215296E-01       4   13    1        -0.7705239719E+00      0.1959661576E+01
          0                 2           2             4   13     1       0.1269517135E-02       4   13    1         0.7641206117E-01      0.1936416352E+00
          0                 3           1             4   13     1      -0.8543845574E-04       4   13    1        -0.5287267078E-02      0.1333960215E-01

    ------------------------------------------------
       NWT REQUIRED            3 OUTER ITERATIONS 
       AND A TOTAL OF          5 INNER ITERATIONS.
    ------------------------------------------------

 OUTPUT CONTROL FOR STRESS PERIOD    5   TIME STEP    4
    PRINT BUDGET
    SAVE BUDGET
 UBDSV1 SAVING "         STORAGE" ON UNIT 102 AT TIME STEP  4, STRESS PERIOD   5
 UBDSV2 SAVING "   CONSTANT HEAD" ON UNIT 102 AT TIME STEP  4, STRESS PERIOD   5
 UBDSV1 SAVING "FLOW RIGHT FACE " ON UNIT 102 AT TIME STEP  4, STRESS PERIOD   5
 UBDSV1 SAVING "FLOW FRONT FACE " ON UNIT 102 AT TIME STEP  4, STRESS PERIOD   5

  HEAD DEP BOUNDS   PERIOD    5   STEP     4
 BOUNDARY      1   LAYER   1   ROW    13   COL     1   RATE   -0.296394    
 BOUNDARY      2   LAYER   1   ROW    14   COL     9   RATE    0.285473    



 STREAM LISTING     PERIOD      5   STEP        4

 LAYER ROW COL. STREAM  RCH.  FLOW INTO     FLOW TO   FLOW OUT OF   OVRLND.     DIRECT     STREAM       STREAM     STREAM     STREAM   STREAMBED  STREAMBED
                SEG.NO.  NO.  STRM. RCH.    AQUIFER    STRM. RCH.    RUNOFF     PRECIP       ET          HEAD       DEPTH      WIDTH   CONDCTNC.   GRADIENT

   1    1    1     1     1    2.8000E+01  2.5860E-01   2.7741E+01  0.000E+00  0.000E+00  0.000E+00  1.09427E+03  1.221E+00  1.361E+01  6.126E-02  1.407E+00
   1    2    2     1     2    2.7741E+01  4.0002E-01   2.7341E+01  0.000E+00  0.000E+00  0.000E+00  1.08928E+03  1.217E+00  1.355E+01  9.487E-02  1.406E+00
   1    3    3     1     3    2.7341E+01  3.4070E-01   2.7001E+01  0.000E+00  0.000E+00  0.000E+00  1.08363E+03  1.212E+00  1.348E+01  8.090E-02  1.404E+00
   1    3    4     1     4    2.7001E+01  3.1335E-01   2.6687E+01  0.000E+00  0.000E+00  0.000E+00  1.07861E+03  1.207E+00  1.342E+01  7.448E-02  1.402E+00
   1    4    5     2     1    2.4687E+01  3.2711E-01   2.4360E+01  0.000E+00  0.000E+00  0.000E+00  1.07313E+03  1.194E+00  1.200E+01  7.800E-02  1.398E+00
   1    5    6     2     2    2.4360E+01  2.5111E-01   2.4109E+01  0.000E+00  0.000E+00  0.000E+00  1.06769E+03  1.185E+00  1.200E+01  6.000E-02  1.395E+00
   1    6    6     2     3    2.4109E+01  2.5067E-01   2.3858E+01  0.000E+00  0.000E+00  0.000E+00  1.06297E+03  1.178E+00  1.200E+01  6.000E-02  1.393E+00
   1    7    6     2     4    2.3858E+01  2.5023E-01   2.3608E+01  0.000E+00  0.000E+00  0.000E+00  1.05825E+03  1.170E+00  1.200E+01  6.000E-02  1.390E+00
   1    8    6     2     5    2.3608E+01  2.4978E-01   2.3358E+01  0.000E+00  0.000E+00  0.000E+00  1.05352E+03  1.163E+00  1.200E+01  6.000E-02  1.388E+00
   1    3    5     3     1    2.0000E+00  2.8252E-01   1.7175E+00  0.000E+00  0.000E+00  0.000E+00  1.07555E+03  1.909E+00  9.636E+00  7.227E-02  1.955E+00
   1    3    6     3     2    1.7175E+00  2.4905E-01   1.4684E+00  0.000E+00  0.000E+00  0.000E+00  1.07264E+03  1.727E+00  8.909E+00  6.682E-02  1.864E+00
   1    3    7     3     3    1.4684E+00  1.9718E-01   1.2712E+00  0.000E+00  0.000E+00  0.000E+00  1.06987E+03  1.555E+00  8.218E+00  5.547E-02  1.777E+00
   1    4    8     3     4    1.2712E+00  2.2567E-01   1.0456E+00  0.000E+00  0.000E+00  0.000E+00  1.06682E+03  1.364E+00  7.455E+00  6.709E-02  1.682E+00
   1    5    8     3     5    1.0456E+00  1.5790E-01   8.8768E-01  0.000E+00  0.000E+00  0.000E+00  1.06362E+03  1.164E+00  6.655E+00  4.991E-02  1.582E+00
   1    6    8     3     6    8.8768E-01  5.5980E-02   8.3170E-01  0.000E+00  0.000E+00  0.000E+00  1.06158E+03  1.036E+00  6.145E+00  1.844E-02  1.518E+00
   1    5   10     4     1    1.0000E+01  9.0919E-02   9.9091E+00  0.000E+00  0.000E+00  0.000E+00  1.07836E+03  6.368E-01  1.000E+01  2.500E-02  1.212E+00
   1    5    9     4     2    9.9091E+00  1.8158E-01   9.7275E+00  0.000E+00  0.000E+00  0.000E+00  1.07154E+03  6.315E-01  1.000E+01  5.000E-02  1.211E+00
   1    6    8     4     3    9.7275E+00  1.2689E-01   9.6006E+00  0.000E+00  0.000E+00  0.000E+00  1.06381E+03  6.256E-01  1.000E+01  3.500E-02  1.209E+00
   1    6    8     5     1    1.0432E+01  2.2686E-01   1.0205E+01  0.000E+00  0.000E+00  0.000E+00  1.05868E+03  6.790E-01  1.542E+01  6.166E-02  1.226E+00
   1    7    7     5     2    1.0205E+01  2.7894E-01   9.9265E+00  0.000E+00  0.000E+00  0.000E+00  1.05417E+03  6.732E-01  1.519E+01  7.594E-02  1.224E+00
   1    8    7     5     3    9.9265E+00  1.9221E-01   9.7343E+00  0.000E+00  0.000E+00  0.000E+00  1.04992E+03  6.676E-01  1.497E+01  5.241E-02  1.223E+00
   1    8    6     5     4    9.7343E+00  1.3577E-01   9.5985E+00  0.000E+00  0.000E+00  0.000E+00  1.04691E+03  6.637E-01  1.482E+01  3.706E-02  1.221E+00
   1    9    6     6     1    3.2957E+01  2.6627E-01   3.2691E+01  0.000E+00  0.000E+00  0.000E+00  1.04417E+03  1.438E+00  1.200E+01  6.000E-02  1.479E+00
   1   10    7     6     2    3.2691E+01  2.6584E-01   3.2425E+01  0.000E+00  0.000E+00  0.000E+00  1.03961E+03  1.431E+00  1.200E+01  6.000E-02  1.477E+00
   1   11    7     6     3    3.2425E+01  2.6542E-01   3.2159E+01  0.000E+00  0.000E+00  0.000E+00  1.03506E+03  1.424E+00  1.200E+01  6.000E-02  1.475E+00
   1   12    7     6     4    3.2159E+01  2.6500E-01   3.1894E+01  0.000E+00  0.000E+00  0.000E+00  1.03051E+03  1.417E+00  1.200E+01  6.000E-02  1.472E+00
   1   13    7     6     5    3.1894E+01  3.4784E-03   3.1891E+01  0.000E+00  0.000E+00  0.000E+00  1.02732E+03  1.413E+00  1.200E+01  2.400E-02  4.831E-02
   1   14    9     7     1    1.5000E+02  1.3316E+00   1.4867E+02  0.000E+00  0.000E+00  0.000E+00  1.03987E+03  2.288E+00  5.529E+01  5.593E-01  7.936E-01
   1   13    8     7     2    1.4867E+02  1.8142E+00   1.4685E+02  0.000E+00  0.000E+00  0.000E+00  1.03478E+03  2.279E+00  5.526E+01  6.148E-01  9.836E-01
   1   13    7     7     3    1.4685E+02  1.4033E+00   1.4545E+02  0.000E+00  0.000E+00  0.000E+00  1.02969E+03  2.271E+00  5.522E+01  5.585E-01  8.376E-01
   1   13    6     8     1    1.7734E+02  8.5755E-01   1.7648E+02  0.000E+00  0.000E+00  0.000E+00  1.02487E+03  2.997E+00  4.345E+01  4.428E-01  6.456E-01
   1   13    5     8     2    1.7648E+02  9.2975E-02   1.7639E+02  0.000E+00  0.000E+00  0.000E+00  1.01862E+03  2.994E+00  4.341E+01  4.423E-01  7.006E-02
   1   13    4     8     3    1.7639E+02 -3.1303E+00   1.7952E+02  0.000E+00  0.000E+00  0.000E+00  1.01238E+03  3.003E+00  4.355E+01  4.438E+00 -2.351E-01
   1   13    3     8     4    1.7952E+02 -4.2365E+00   1.8376E+02  0.000E+00  0.000E+00  0.000E+00  1.00615E+03  3.026E+00  4.388E+01  4.472E+00 -3.158E-01
   1   13    2     8     5    1.8376E+02 -3.1972E+00   1.8696E+02  0.000E+00  0.000E+00  0.000E+00  9.99924E+02  3.050E+00  4.422E+01  4.506E+00 -2.365E-01
   1   13    1     8     6    1.8696E+02 -2.3335E+00   1.8929E+02  0.000E+00  0.000E+00  0.000E+00  9.94942E+02  3.067E+00  4.446E+01  2.719E+00 -2.861E-01



 UBDSV3 SAVING "           GW ET" ON UNIT  61 AT TIME STEP  4, STRESS PERIOD   5
 UBDSV3 SAVING "    UZF RECHARGE" ON UNIT  61 AT TIME STEP  4, STRESS PERIOD   5
 UBDSV3 SAVING " SURFACE LEAKAGE" ON UNIT  61 AT TIME STEP  4, STRESS PERIOD   5
 UBDSV3 SAVING "       HORT+DUNN" ON UNIT  61 AT TIME STEP  4, STRESS PERIOD   5
 UBDSV3 SAVING "  STORAGE CHANGE" ON UNIT  61 AT TIME STEP  4, STRESS PERIOD   5


UNSATURATED ZONE PACKAGE VOLUMETRIC BUDGET FOR  TIME STEP     4 STRESS PERIOD    5
  ------------------------------------------------------------------------------



     CUMULATIVE VOLUMES      L**3       RATES FOR THIS TIME STEP      L**3/T
     ------------------                 ------------------------

           IN:                                      IN:
           ---                                      ---
        INFILTRATION =     8361760.7189          INFILTRATION =           4.5675

          OUT:                                     OUT:
          ----                                     ----
              UZF ET =     8287859.6463                UZF ET =           4.5675
        UZF RECHARGE =       73224.0000          UZF RECHARGE =       0.0000E+00

            IN - OUT =         677.0726              IN - OUT =       0.0000E+00

          STORAGE:                                 STORAGE:
          --------                                 --------
      STORAGE CHANGE =         677.1349        STORAGE CHANGE =       1.9742E-08

 PERCENT DISCREPANCY IS DIFFERENCE BETWEEN IN-OUT MINUS CHANGE IN STORAGE
 DIVIDED BY THE AVERAGE OF IN AND OUT TIMES 100

 PERCENT DISCREPANCY =          -0.00     PERCENT DISCREPANCY =           0.00






 

            AG WELLS      PERIOD    5   STEP   4
 AG WELL      1   LAYER   1   ROW     6   COL     4   RATE   -0.620000    
 AG WELL      2   LAYER   1   ROW     6   COL     5   RATE   -0.620000    
 AG WELL      3   LAYER   1   ROW     7   COL     4   RATE   -0.620000    
 AG WELL      4   LAYER   1   ROW     7   COL     5   RATE   -0.620000    
 AG WELL      5   LAYER   1   ROW     8   COL     4   RATE   -0.620000    
 AG WELL      6   LAYER   1   ROW     8   COL     5   RATE   -0.620000    
 
 

        GW IRRIGATION     PERIOD    5   STEP   4
 AG WELL      1   ROW     6   COL     4   RATE    0.620000    
 AG WELL      2   ROW     6   COL     5   RATE    0.620000    
 AG WELL      3   ROW     7   COL     4   RATE    0.620000    
 AG WELL      4   ROW     7   COL     5   RATE    0.620000    
 AG WELL      5   ROW     8   COL     4   RATE    0.620000    
 AG WELL      6   ROW     8   COL     5   RATE    0.620000    
 
1
  VOLUMETRIC BUDGET FOR AGRICULTURAL FIELDS AT  END OF TIME STEP    4, STRESS PERIOD   5
  ------------------------------------------------------------------------------

     CUMULATIVE VOLUMES      L**3       RATES FOR THIS TIME STEP      L**3/T
     ------------------                 ------------------------

           IN:                                      IN:
           ---                                      ---
               AG WELLS  =     1304572.1250                 AG WELLS  =           3.7200
      DIVERSION SEGMENTS =           0.0000        DIVERSION SEGMENTS =           0.0000
           GW IRRIGATION =           0.0000             GW IRRIGATION =           0.0000
           SW IRRIGATION =           0.0000             SW IRRIGATION =           0.0000
        SYSTEM LOSSES GW =           0.0000          SYSTEM LOSSES GW =           0.0000
        SYSTEM LOSSES SW =           0.0000          SYSTEM LOSSES SW =           0.0000

                TOTAL IN =     1304572.1250                  TOTAL IN =           3.7200

          OUT:                                     OUT:
          ----                                     ----
               AG WELLS  =           0.0000                 AG WELLS  =           0.0000
      DIVERSION SEGMENTS =           0.0000        DIVERSION SEGMENTS =           0.0000
           GW IRRIGATION =     1304572.1250             GW IRRIGATION =           3.7200
           SW IRRIGATION =           0.0000             SW IRRIGATION =           0.0000
        SYSTEM LOSSES GW =           0.0000          SYSTEM LOSSES GW =           0.0000
        SYSTEM LOSSES SW =           0.0000          SYSTEM LOSSES SW =           0.0000

               TOTAL OUT =     1304572.1250                 TOTAL OUT =           3.7200

                IN - OUT =           0.0000                  IN - OUT =           0.0000

     PERCENT DISCREPANCY =           0.00         PERCENT DISCREPANCY =           0.00



1
  VOLUMETRIC BUDGET FOR ENTIRE MODEL AT END OF TIME STEP    4, STRESS PERIOD   5
  ------------------------------------------------------------------------------

     CUMULATIVE VOLUMES      L**3       RATES FOR THIS TIME STEP      L**3/T
     ------------------                 ------------------------

           IN:                                      IN:
           ---                                      ---
             STORAGE     =     6717843.0000               STORAGE     =           6.5772
       CONSTANT HEAD     =           0.0000         CONSTANT HEAD     =           0.0000
     HEAD DEP BOUNDS     =     2376727.0000       HEAD DEP BOUNDS     =           0.2855
      STREAM LEAKAGE     =   103044536.0000        STREAM LEAKAGE     =          11.6087
        UZF RECHARGE     =       73223.9531          UZF RECHARGE     =           0.0000
               GW ET     =           0.0000                 GW ET     =           0.0000
     SURFACE LEAKAGE     =           0.0000       SURFACE LEAKAGE     =           0.0000
           AG WELLS      =           0.0000             AG WELLS      =           0.0000

                TOTAL IN =   112212328.0000                  TOTAL IN =          18.4714

          OUT:                                     OUT:
          ----                                     ----
             STORAGE     =    22866556.0000               STORAGE     =           1.3297
       CONSTANT HEAD     =           0.0000         CONSTANT HEAD     =           0.0000
     HEAD DEP BOUNDS     =     2431776.2500       HEAD DEP BOUNDS     =           0.2964
      STREAM LEAKAGE     =    85508464.0000        STREAM LEAKAGE     =          12.8975
        UZF RECHARGE     =           0.0000          UZF RECHARGE     =           0.0000
               GW ET     =      105841.6406                 GW ET     =           0.2263
     SURFACE LEAKAGE     =           0.0000       SURFACE LEAKAGE     =           0.0000
           AG WELLS      =     1304572.1250             AG WELLS      =           3.7200

               TOTAL OUT =   112217216.0000                 TOTAL OUT =          18.4699

                IN - OUT =       -4888.0000                  IN - OUT =       1.5125E-03

     PERCENT DISCREPANCY =          -0.00         PERCENT DISCREPANCY =           0.01






         TIME SUMMARY AT END OF TIME STEP    4 IN STRESS PERIOD    5
                    SECONDS     MINUTES      HOURS       DAYS        YEARS
                    -----------------------------------------------------------
   TIME STEP LENGTH  87667.      1461.1      24.352      1.0147     2.77799E-03
 STRESS PERIOD TIME 3.50667E+05  5844.4      97.407      4.0586     1.11120E-02
         TOTAL TIME 8.32706E+06 1.38784E+05  2313.1      96.378     0.26387    
1
 
 SOLVING FOR HEAD 
                                                   Max.-Head-Change                         Max.-Flux-Residual
  Residual-Control   Outer-Iter.   Inner-Iter.     Column Row Layer    Maximum-Head-Change  Column Row Layer    Maximum-Flux-Residual          L2-NORM 
          0                 1           2             4   13     1      -0.1168956228E-01       4   13    1        -0.6840162864E+00      0.1860399851E+01
          0                 2           2             4   13     1       0.1127407437E-02       4   13    1         0.6782854647E-01      0.1840037159E+00
          0                 3           1             4   13     1      -0.7585330622E-04       4   13    1        -0.4692003867E-02      0.1269191494E-01

    ------------------------------------------------
       NWT REQUIRED            3 OUTER ITERATIONS 
       AND A TOTAL OF          5 INNER ITERATIONS.
    ------------------------------------------------

 NO OUTPUT CONTROL FOR STRESS PERIOD    5   TIME STEP    5
 
 SOLVING FOR HEAD 
                                                   Max.-Head-Change                         Max.-Flux-Residual
  Residual-Control   Outer-Iter.   Inner-Iter.     Column Row Layer    Maximum-Head-Change  Column Row Layer    Maximum-Flux-Residual          L2-NORM 
          0                 1           2             4    7     1      -0.1132875330E-01       4   13    1        -0.6074876910E+00      0.1773007762E+01
          0                 2           2             4    7     1       0.1101976291E-02       4   13    1         0.6023409599E-01      0.1755209444E+00
          0                 3           1             4    7     1      -0.7504052405E-04       4   13    1        -0.4165440197E-02      0.1212147885E-01

    ------------------------------------------------
       NWT REQUIRED            3 OUTER ITERATIONS 
       AND A TOTAL OF          5 INNER ITERATIONS.
    ------------------------------------------------

 OUTPUT CONTROL FOR STRESS PERIOD    5   TIME STEP    6
    PRINT BUDGET
    SAVE BUDGET
 UBDSV1 SAVING "         STORAGE" ON UNIT 102 AT TIME STEP  6, STRESS PERIOD   5
 UBDSV2 SAVING "   CONSTANT HEAD" ON UNIT 102 AT TIME STEP  6, STRESS PERIOD   5
 UBDSV1 SAVING "FLOW RIGHT FACE " ON UNIT 102 AT TIME STEP  6, STRESS PERIOD   5
 UBDSV1 SAVING "FLOW FRONT FACE " ON UNIT 102 AT TIME STEP  6, STRESS PERIOD   5

  HEAD DEP BOUNDS   PERIOD    5   STEP     6
 BOUNDARY      1   LAYER   1   ROW    13   COL     1   RATE   -0.295931    
 BOUNDARY      2   LAYER   1   ROW    14   COL     9   RATE    0.285474    



 STREAM LISTING     PERIOD      5   STEP        6

 LAYER ROW COL. STREAM  RCH.  FLOW INTO     FLOW TO   FLOW OUT OF   OVRLND.     DIRECT     STREAM       STREAM     STREAM     STREAM   STREAMBED  STREAMBED
                SEG.NO.  NO.  STRM. RCH.    AQUIFER    STRM. RCH.    RUNOFF     PRECIP       ET          HEAD       DEPTH      WIDTH   CONDCTNC.   GRADIENT

   1    1    1     1     1    2.8000E+01  2.5860E-01   2.7742E+01  0.000E+00  0.000E+00  0.000E+00  1.09427E+03  1.221E+00  1.361E+01  6.126E-02  1.407E+00
   1    2    2     1     2    2.7742E+01  4.0002E-01   2.7341E+01  0.000E+00  0.000E+00  0.000E+00  1.08928E+03  1.217E+00  1.355E+01  9.487E-02  1.406E+00
   1    3    3     1     3    2.7341E+01  3.4070E-01   2.7001E+01  0.000E+00  0.000E+00  0.000E+00  1.08363E+03  1.212E+00  1.348E+01  8.090E-02  1.404E+00
   1    3    4     1     4    2.7001E+01  3.1335E-01   2.6687E+01  0.000E+00  0.000E+00  0.000E+00  1.07861E+03  1.207E+00  1.342E+01  7.448E-02  1.402E+00
   1    4    5     2     1    2.4687E+01  3.2711E-01   2.4360E+01  0.000E+00  0.000E+00  0.000E+00  1.07313E+03  1.194E+00  1.200E+01  7.800E-02  1.398E+00
   1    5    6     2     2    2.4360E+01  2.5111E-01   2.4109E+01  0.000E+00  0.000E+00  0.000E+00  1.06769E+03  1.185E+00  1.200E+01  6.000E-02  1.395E+00
   1    6    6     2     3    2.4109E+01  2.5067E-01   2.3859E+01  0.000E+00  0.000E+00  0.000E+00  1.06297E+03  1.178E+00  1.200E+01  6.000E-02  1.393E+00
   1    7    6     2     4    2.3859E+01  2.5023E-01   2.3608E+01  0.000E+00  0.000E+00  0.000E+00  1.05825E+03  1.170E+00  1.200E+01  6.000E-02  1.390E+00
   1    8    6     2     5    2.3608E+01  2.4978E-01   2.3359E+01  0.000E+00  0.000E+00  0.000E+00  1.05352E+03  1.163E+00  1.200E+01  6.000E-02  1.388E+00
   1    3    5     3     1    2.0000E+00  2.8252E-01   1.7175E+00  0.000E+00  0.000E+00  0.000E+00  1.07555E+03  1.909E+00  9.636E+00  7.227E-02  1.955E+00
   1    3    6     3     2    1.7175E+00  2.4905E-01   1.4684E+00  0.000E+00  0.000E+00  0.000E+00  1.07264E+03  1.727E+00  8.909E+00  6.682E-02  1.864E+00
   1    3    7     3     3    1.4684E+00  1.9718E-01   1.2712E+00  0.000E+00  0.000E+00  0.000E+00  1.06987E+03  1.555E+00  8.218E+00  5.547E-02  1.777E+00
   1    4    8     3     4    1.2712E+00  2.2567E-01   1.0456E+00  0.000E+00  0.000E+00  0.000E+00  1.06682E+03  1.364E+00  7.455E+00  6.709E-02  1.682E+00
   1    5    8     3     5    1.0456E+00  1.5790E-01   8.8768E-01  0.000E+00  0.000E+00  0.000E+00  1.06362E+03  1.164E+00  6.655E+00  4.991E-02  1.582E+00
   1    6    8     3     6    8.8768E-01  5.5980E-02   8.3170E-01  0.000E+00  0.000E+00  0.000E+00  1.06158E+03  1.036E+00  6.145E+00  1.844E-02  1.518E+00
   1    5   10     4     1    1.0000E+01  9.0919E-02   9.9091E+00  0.000E+00  0.000E+00  0.000E+00  1.07836E+03  6.368E-01  1.000E+01  2.500E-02  1.212E+00
   1    5    9     4     2    9.9091E+00  1.8158E-01   9.7275E+00  0.000E+00  0.000E+00  0.000E+00  1.07154E+03  6.315E-01  1.000E+01  5.000E-02  1.211E+00
   1    6    8     4     3    9.7275E+00  1.2689E-01   9.6006E+00  0.000E+00  0.000E+00  0.000E+00  1.06381E+03  6.256E-01  1.000E+01  3.500E-02  1.209E+00
   1    6    8     5     1    1.0432E+01  2.2686E-01   1.0205E+01  0.000E+00  0.000E+00  0.000E+00  1.05868E+03  6.790E-01  1.542E+01  6.166E-02  1.226E+00
   1    7    7     5     2    1.0205E+01  2.7894E-01   9.9265E+00  0.000E+00  0.000E+00  0.000E+00  1.05417E+03  6.732E-01  1.519E+01  7.594E-02  1.224E+00
   1    8    7     5     3    9.9265E+00  1.9221E-01   9.7343E+00  0.000E+00  0.000E+00  0.000E+00  1.04992E+03  6.676E-01  1.497E+01  5.241E-02  1.223E+00
   1    8    6     5     4    9.7343E+00  1.3577E-01   9.5985E+00  0.000E+00  0.000E+00  0.000E+00  1.04691E+03  6.637E-01  1.482E+01  3.706E-02  1.221E+00
   1    9    6     6     1    3.2957E+01  2.6627E-01   3.2691E+01  0.000E+00  0.000E+00  0.000E+00  1.04417E+03  1.438E+00  1.200E+01  6.000E-02  1.479E+00
   1   10    7     6     2    3.2691E+01  2.6585E-01   3.2425E+01  0.000E+00  0.000E+00  0.000E+00  1.03961E+03  1.431E+00  1.200E+01  6.000E-02  1.477E+00
   1   11    7     6     3    3.2425E+01  2.6542E-01   3.2160E+01  0.000E+00  0.000E+00  0.000E+00  1.03506E+03  1.424E+00  1.200E+01  6.000E-02  1.475E+00
   1   12    7     6     4    3.2160E+01  2.6500E-01   3.1895E+01  0.000E+00  0.000E+00  0.000E+00  1.03051E+03  1.417E+00  1.200E+01  6.000E-02  1.472E+00
   1   13    7     6     5    3.1895E+01  3.4601E-03   3.1891E+01  0.000E+00  0.000E+00  0.000E+00  1.02732E+03  1.413E+00  1.200E+01  2.400E-02  4.806E-02
   1   14    9     7     1    1.5000E+02  1.3316E+00   1.4867E+02  0.000E+00  0.000E+00  0.000E+00  1.03987E+03  2.288E+00  5.529E+01  5.593E-01  7.936E-01
   1   13    8     7     2    1.4867E+02  1.8139E+00   1.4685E+02  0.000E+00  0.000E+00  0.000E+00  1.03478E+03  2.279E+00  5.526E+01  6.148E-01  9.835E-01
   1   13    7     7     3    1.4685E+02  1.4029E+00   1.4545E+02  0.000E+00  0.000E+00  0.000E+00  1.02969E+03  2.271E+00  5.522E+01  5.585E-01  8.374E-01
   1   13    6     8     1    1.7734E+02  8.5882E-01   1.7648E+02  0.000E+00  0.000E+00  0.000E+00  1.02487E+03  2.997E+00  4.345E+01  4.428E-01  6.465E-01
   1   13    5     8     2    1.7648E+02  9.4080E-02   1.7639E+02  0.000E+00  0.000E+00  0.000E+00  1.01862E+03  2.994E+00  4.341E+01  4.423E-01  7.090E-02
   1   13    4     8     3    1.7639E+02 -3.0421E+00   1.7943E+02  0.000E+00  0.000E+00  0.000E+00  1.01238E+03  3.003E+00  4.354E+01  4.437E+00 -2.285E-01
   1   13    3     8     4    1.7943E+02 -4.1504E+00   1.8358E+02  0.000E+00  0.000E+00  0.000E+00  1.00615E+03  3.026E+00  4.387E+01  4.471E+00 -3.095E-01
   1   13    2     8     5    1.8358E+02 -3.1109E+00   1.8669E+02  0.000E+00  0.000E+00  0.000E+00  9.99923E+02  3.048E+00  4.420E+01  4.504E+00 -2.302E-01
   1   13    1     8     6    1.8669E+02 -2.3037E+00   1.8900E+02  0.000E+00  0.000E+00  0.000E+00  9.94940E+02  3.065E+00  4.444E+01  2.717E+00 -2.826E-01



 UBDSV3 SAVING "           GW ET" ON UNIT  61 AT TIME STEP  6, STRESS PERIOD   5
 UBDSV3 SAVING "    UZF RECHARGE" ON UNIT  61 AT TIME STEP  6, STRESS PERIOD   5
 UBDSV3 SAVING " SURFACE LEAKAGE" ON UNIT  61 AT TIME STEP  6, STRESS PERIOD   5
 UBDSV3 SAVING "       HORT+DUNN" ON UNIT  61 AT TIME STEP  6, STRESS PERIOD   5
 UBDSV3 SAVING "  STORAGE CHANGE" ON UNIT  61 AT TIME STEP  6, STRESS PERIOD   5


UNSATURATED ZONE PACKAGE VOLUMETRIC BUDGET FOR  TIME STEP     6 STRESS PERIOD    5
  ------------------------------------------------------------------------------



     CUMULATIVE VOLUMES      L**3       RATES FOR THIS TIME STEP      L**3/T
     ------------------                 ------------------------

           IN:                                      IN:
           ---                                      ---
        INFILTRATION =     9162595.6794          INFILTRATION =           4.5675

          OUT:                                     OUT:
          ----                                     ----
              UZF ET =     9088694.6069                UZF ET =           4.5675
        UZF RECHARGE =       73224.0000          UZF RECHARGE =       0.0000E+00

            IN - OUT =         677.0726              IN - OUT =       0.0000E+00

          STORAGE:                                 STORAGE:
          --------                                 --------
      STORAGE CHANGE =         677.1349        STORAGE CHANGE =       8.3955E-15

 PERCENT DISCREPANCY IS DIFFERENCE BETWEEN IN-OUT MINUS CHANGE IN STORAGE
 DIVIDED BY THE AVERAGE OF IN AND OUT TIMES 100

 PERCENT DISCREPANCY =           0.00     PERCENT DISCREPANCY =           0.00






 

            AG WELLS      PERIOD    5   STEP   6
 AG WELL      1   LAYER   1   ROW     6   COL     4   RATE   -0.620000    
 AG WELL      2   LAYER   1   ROW     6   COL     5   RATE   -0.620000    
 AG WELL      3   LAYER   1   ROW     7   COL     4   RATE   -0.620000    
 AG WELL      4   LAYER   1   ROW     7   COL     5   RATE   -0.620000    
 AG WELL      5   LAYER   1   ROW     8   COL     4   RATE   -0.620000    
 AG WELL      6   LAYER   1   ROW     8   COL     5   RATE   -0.620000    
 
 

        GW IRRIGATION     PERIOD    5   STEP   6
 AG WELL      1   ROW     6   COL     4   RATE    0.620000    
 AG WELL      2   ROW     6   COL     5   RATE    0.620000    
 AG WELL      3   ROW     7   COL     4   RATE    0.620000    
 AG WELL      4   ROW     7   COL     5   RATE    0.620000    
 AG WELL      5   ROW     8   COL     4   RATE    0.620000    
 AG WELL      6   ROW     8   COL     5   RATE    0.620000    
 
1
  VOLUMETRIC BUDGET FOR AGRICULTURAL FIELDS AT  END OF TIME STEP    6, STRESS PERIOD   5
  ------------------------------------------------------------------------------

     CUMULATIVE VOLUMES      L**3       RATES FOR THIS TIME STEP      L**3/T
     ------------------                 ------------------------

           IN:                                      IN:
           ---                                      ---
               AG WELLS  =     1956812.1250                 AG WELLS  =           3.7200
      DIVERSION SEGMENTS =           0.0000        DIVERSION SEGMENTS =           0.0000
           GW IRRIGATION =           0.0000             GW IRRIGATION =           0.0000
           SW IRRIGATION =           0.0000             SW IRRIGATION =           0.0000
        SYSTEM LOSSES GW =           0.0000          SYSTEM LOSSES GW =           0.0000
        SYSTEM LOSSES SW =           0.0000          SYSTEM LOSSES SW =           0.0000

                TOTAL IN =     1956812.1250                  TOTAL IN =           3.7200

          OUT:                                     OUT:
          ----                                     ----
               AG WELLS  =           0.0000                 AG WELLS  =           0.0000
      DIVERSION SEGMENTS =           0.0000        DIVERSION SEGMENTS =           0.0000
           GW IRRIGATION =     1956812.1250             GW IRRIGATION =           3.7200
           SW IRRIGATION =           0.0000             SW IRRIGATION =           0.0000
        SYSTEM LOSSES GW =           0.0000          SYSTEM LOSSES GW =           0.0000
        SYSTEM LOSSES SW =           0.0000          SYSTEM LOSSES SW =           0.0000

               TOTAL OUT =     1956812.1250                 TOTAL OUT =           3.7200

                IN - OUT =           0.0000                  IN - OUT =           0.0000

     PERCENT DISCREPANCY =           0.00         PERCENT DISCREPANCY =           0.00



1
  VOLUMETRIC BUDGET FOR ENTIRE MODEL AT END OF TIME STEP    6, STRESS PERIOD   5
  ------------------------------------------------------------------------------

     CUMULATIVE VOLUMES      L**3       RATES FOR THIS TIME STEP      L**3/T
     ------------------                 ------------------------

           IN:                                      IN:
           ---                                      ---
             STORAGE     =     7815114.5000               STORAGE     =           6.1593
       CONSTANT HEAD     =           0.0000         CONSTANT HEAD     =           0.0000
     HEAD DEP BOUNDS     =     2426780.0000       HEAD DEP BOUNDS     =           0.2855
      STREAM LEAKAGE     =   105080144.0000        STREAM LEAKAGE     =          11.6104
        UZF RECHARGE     =       73223.9531          UZF RECHARGE     =           0.0000
               GW ET     =           0.0000                 GW ET     =           0.0000
     SURFACE LEAKAGE     =           0.0000       SURFACE LEAKAGE     =           0.0000
           AG WELLS      =           0.0000             AG WELLS      =           0.0000

                TOTAL IN =   115395264.0000                  TOTAL IN =          18.0551

          OUT:                                     OUT:
          ----                                     ----
             STORAGE     =    23089462.0000               STORAGE     =           1.2539
       CONSTANT HEAD     =           0.0000         CONSTANT HEAD     =           0.0000
     HEAD DEP BOUNDS     =     2483682.7500       HEAD DEP BOUNDS     =           0.2959
      STREAM LEAKAGE     =    87731048.0000        STREAM LEAKAGE     =          12.6071
        UZF RECHARGE     =           0.0000          UZF RECHARGE     =           0.0000
               GW ET     =      138885.8906                 GW ET     =           0.1768
     SURFACE LEAKAGE     =           0.0000       SURFACE LEAKAGE     =           0.0000
           AG WELLS      =     1956812.1250             AG WELLS      =           3.7200

               TOTAL OUT =   115399896.0000                 TOTAL OUT =          18.0537

                IN - OUT =       -4632.0000                  IN - OUT =       1.4153E-03

     PERCENT DISCREPANCY =          -0.00         PERCENT DISCREPANCY =           0.01






         TIME SUMMARY AT END OF TIME STEP    6 IN STRESS PERIOD    5
                    SECONDS     MINUTES      HOURS       DAYS        YEARS
                    -----------------------------------------------------------
   TIME STEP LENGTH  87667.      1461.1      24.352      1.0147     2.77799E-03
 STRESS PERIOD TIME 5.26000E+05  8766.7      146.11      6.0880     1.66679E-02
         TOTAL TIME 8.50239E+06 1.41707E+05  2361.8      98.407     0.26942    
1
 
 SOLVING FOR HEAD 
                                                   Max.-Head-Change                         Max.-Flux-Residual
  Residual-Control   Outer-Iter.   Inner-Iter.     Column Row Layer    Maximum-Head-Change  Column Row Layer    Maximum-Flux-Residual          L2-NORM 
          0                 1           2             4    7     1      -0.1123805179E-01       4    7    1        -0.5886323159E+00      0.1695955286E+01
          0                 2           2             4    7     1       0.1088826106E-02       4    7    1         0.5858708303E-01      0.1679527081E+00
          0                 3           1             4    7     1      -0.7414503594E-04       4    7    1        -0.4101098469E-02      0.1161352474E-01

    ------------------------------------------------
       NWT REQUIRED            3 OUTER ITERATIONS 
       AND A TOTAL OF          5 INNER ITERATIONS.
    ------------------------------------------------

 OUTPUT CONTROL FOR STRESS PERIOD    5   TIME STEP    7
    PRINT BUDGET
    SAVE BUDGET
 UBDSV1 SAVING "         STORAGE" ON UNIT 102 AT TIME STEP  7, STRESS PERIOD   5
 UBDSV2 SAVING "   CONSTANT HEAD" ON UNIT 102 AT TIME STEP  7, STRESS PERIOD   5
 UBDSV1 SAVING "FLOW RIGHT FACE " ON UNIT 102 AT TIME STEP  7, STRESS PERIOD   5
 UBDSV1 SAVING "FLOW FRONT FACE " ON UNIT 102 AT TIME STEP  7, STRESS PERIOD   5

  HEAD DEP BOUNDS   PERIOD    5   STEP     7
 BOUNDARY      1   LAYER   1   ROW    13   COL     1   RATE   -0.295713    
 BOUNDARY      2   LAYER   1   ROW    14   COL     9   RATE    0.285475    



 STREAM LISTING     PERIOD      5   STEP        7

 LAYER ROW COL. STREAM  RCH.  FLOW INTO     FLOW TO   FLOW OUT OF   OVRLND.     DIRECT     STREAM       STREAM     STREAM     STREAM   STREAMBED  STREAMBED
                SEG.NO.  NO.  STRM. RCH.    AQUIFER    STRM. RCH.    RUNOFF     PRECIP       ET          HEAD       DEPTH      WIDTH   CONDCTNC.   GRADIENT

   1    1    1     1     1    2.8000E+01  2.5860E-01   2.7742E+01  0.000E+00  0.000E+00  0.000E+00  1.09427E+03  1.221E+00  1.361E+01  6.126E-02  1.407E+00
   1    2    2     1     2    2.7742E+01  4.0002E-01   2.7341E+01  0.000E+00  0.000E+00  0.000E+00  1.08928E+03  1.217E+00  1.355E+01  9.487E-02  1.406E+00
   1    3    3     1     3    2.7341E+01  3.4070E-01   2.7001E+01  0.000E+00  0.000E+00  0.000E+00  1.08363E+03  1.212E+00  1.348E+01  8.090E-02  1.404E+00
   1    3    4     1     4    2.7001E+01  3.1335E-01   2.6687E+01  0.000E+00  0.000E+00  0.000E+00  1.07861E+03  1.207E+00  1.342E+01  7.448E-02  1.402E+00
   1    4    5     2     1    2.4687E+01  3.2711E-01   2.4360E+01  0.000E+00  0.000E+00  0.000E+00  1.07313E+03  1.194E+00  1.200E+01  7.800E-02  1.398E+00
   1    5    6     2     2    2.4360E+01  2.5111E-01   2.4109E+01  0.000E+00  0.000E+00  0.000E+00  1.06769E+03  1.185E+00  1.200E+01  6.000E-02  1.395E+00
   1    6    6     2     3    2.4109E+01  2.5067E-01   2.3859E+01  0.000E+00  0.000E+00  0.000E+00  1.06297E+03  1.178E+00  1.200E+01  6.000E-02  1.393E+00
   1    7    6     2     4    2.3859E+01  2.5023E-01   2.3608E+01  0.000E+00  0.000E+00  0.000E+00  1.05825E+03  1.170E+00  1.200E+01  6.000E-02  1.390E+00
   1    8    6     2     5    2.3608E+01  2.4978E-01   2.3359E+01  0.000E+00  0.000E+00  0.000E+00  1.05352E+03  1.163E+00  1.200E+01  6.000E-02  1.388E+00
   1    3    5     3     1    2.0000E+00  2.8252E-01   1.7175E+00  0.000E+00  0.000E+00  0.000E+00  1.07555E+03  1.909E+00  9.636E+00  7.227E-02  1.955E+00
   1    3    6     3     2    1.7175E+00  2.4905E-01   1.4684E+00  0.000E+00  0.000E+00  0.000E+00  1.07264E+03  1.727E+00  8.909E+00  6.682E-02  1.864E+00
   1    3    7     3     3    1.4684E+00  1.9718E-01   1.2712E+00  0.000E+00  0.000E+00  0.000E+00  1.06987E+03  1.555E+00  8.218E+00  5.547E-02  1.777E+00
   1    4    8     3     4    1.2712E+00  2.2567E-01   1.0456E+00  0.000E+00  0.000E+00  0.000E+00  1.06682E+03  1.364E+00  7.455E+00  6.709E-02  1.682E+00
   1    5    8     3     5    1.0456E+00  1.5790E-01   8.8768E-01  0.000E+00  0.000E+00  0.000E+00  1.06362E+03  1.164E+00  6.655E+00  4.991E-02  1.582E+00
   1    6    8     3     6    8.8768E-01  5.5980E-02   8.3170E-01  0.000E+00  0.000E+00  0.000E+00  1.06158E+03  1.036E+00  6.145E+00  1.844E-02  1.518E+00
   1    5   10     4     1    1.0000E+01  9.0919E-02   9.9091E+00  0.000E+00  0.000E+00  0.000E+00  1.07836E+03  6.368E-01  1.000E+01  2.500E-02  1.212E+00
   1    5    9     4     2    9.9091E+00  1.8158E-01   9.7275E+00  0.000E+00  0.000E+00  0.000E+00  1.07154E+03  6.315E-01  1.000E+01  5.000E-02  1.211E+00
   1    6    8     4     3    9.7275E+00  1.2689E-01   9.6006E+00  0.000E+00  0.000E+00  0.000E+00  1.06381E+03  6.256E-01  1.000E+01  3.500E-02  1.209E+00
   1    6    8     5     1    1.0432E+01  2.2686E-01   1.0205E+01  0.000E+00  0.000E+00  0.000E+00  1.05868E+03  6.790E-01  1.542E+01  6.166E-02  1.226E+00
   1    7    7     5     2    1.0205E+01  2.7894E-01   9.9265E+00  0.000E+00  0.000E+00  0.000E+00  1.05417E+03  6.732E-01  1.519E+01  7.594E-02  1.224E+00
   1    8    7     5     3    9.9265E+00  1.9221E-01   9.7343E+00  0.000E+00  0.000E+00  0.000E+00  1.04992E+03  6.676E-01  1.497E+01  5.241E-02  1.223E+00
   1    8    6     5     4    9.7343E+00  1.3577E-01   9.5985E+00  0.000E+00  0.000E+00  0.000E+00  1.04691E+03  6.637E-01  1.482E+01  3.706E-02  1.221E+00
   1    9    6     6     1    3.2957E+01  2.6627E-01   3.2691E+01  0.000E+00  0.000E+00  0.000E+00  1.04417E+03  1.438E+00  1.200E+01  6.000E-02  1.479E+00
   1   10    7     6     2    3.2691E+01  2.6585E-01   3.2425E+01  0.000E+00  0.000E+00  0.000E+00  1.03961E+03  1.431E+00  1.200E+01  6.000E-02  1.477E+00
   1   11    7     6     3    3.2425E+01  2.6542E-01   3.2160E+01  0.000E+00  0.000E+00  0.000E+00  1.03506E+03  1.424E+00  1.200E+01  6.000E-02  1.475E+00
   1   12    7     6     4    3.2160E+01  2.6500E-01   3.1895E+01  0.000E+00  0.000E+00  0.000E+00  1.03051E+03  1.417E+00  1.200E+01  6.000E-02  1.472E+00
   1   13    7     6     5    3.1895E+01  3.4517E-03   3.1891E+01  0.000E+00  0.000E+00  0.000E+00  1.02732E+03  1.413E+00  1.200E+01  2.400E-02  4.794E-02
   1   14    9     7     1    1.5000E+02  1.3316E+00   1.4867E+02  0.000E+00  0.000E+00  0.000E+00  1.03987E+03  2.288E+00  5.529E+01  5.593E-01  7.936E-01
   1   13    8     7     2    1.4867E+02  1.8137E+00   1.4685E+02  0.000E+00  0.000E+00  0.000E+00  1.03478E+03  2.279E+00  5.526E+01  6.148E-01  9.834E-01
   1   13    7     7     3    1.4685E+02  1.4027E+00   1.4545E+02  0.000E+00  0.000E+00  0.000E+00  1.02969E+03  2.271E+00  5.522E+01  5.585E-01  8.372E-01
   1   13    6     8     1    1.7734E+02  8.5941E-01   1.7648E+02  0.000E+00  0.000E+00  0.000E+00  1.02487E+03  2.997E+00  4.345E+01  4.428E-01  6.470E-01
   1   13    5     8     2    1.7648E+02  9.4663E-02   1.7639E+02  0.000E+00  0.000E+00  0.000E+00  1.01862E+03  2.994E+00  4.341E+01  4.423E-01  7.134E-02
   1   13    4     8     3    1.7639E+02 -3.0053E+00   1.7939E+02  0.000E+00  0.000E+00  0.000E+00  1.01238E+03  3.003E+00  4.354E+01  4.437E+00 -2.258E-01
   1   13    3     8     4    1.7939E+02 -4.1137E+00   1.8351E+02  0.000E+00  0.000E+00  0.000E+00  1.00615E+03  3.025E+00  4.387E+01  4.470E+00 -3.068E-01
   1   13    2     8     5    1.8351E+02 -3.0724E+00   1.8658E+02  0.000E+00  0.000E+00  0.000E+00  9.99923E+02  3.048E+00  4.419E+01  4.503E+00 -2.274E-01
   1   13    1     8     6    1.8658E+02 -2.2895E+00   1.8887E+02  0.000E+00  0.000E+00  0.000E+00  9.94939E+02  3.064E+00  4.443E+01  2.716E+00 -2.809E-01



 UBDSV3 SAVING "           GW ET" ON UNIT  61 AT TIME STEP  7, STRESS PERIOD   5
 UBDSV3 SAVING "    UZF RECHARGE" ON UNIT  61 AT TIME STEP  7, STRESS PERIOD   5
 UBDSV3 SAVING " SURFACE LEAKAGE" ON UNIT  61 AT TIME STEP  7, STRESS PERIOD   5
 UBDSV3 SAVING "       HORT+DUNN" ON UNIT  61 AT TIME STEP  7, STRESS PERIOD   5
 UBDSV3 SAVING "  STORAGE CHANGE" ON UNIT  61 AT TIME STEP  7, STRESS PERIOD   5


UNSATURATED ZONE PACKAGE VOLUMETRIC BUDGET FOR  TIME STEP     7 STRESS PERIOD    5
  ------------------------------------------------------------------------------



     CUMULATIVE VOLUMES      L**3       RATES FOR THIS TIME STEP      L**3/T
     ------------------                 ------------------------

           IN:                                      IN:
           ---                                      ---
        INFILTRATION =     9563013.1597          INFILTRATION =           4.5675

          OUT:                                     OUT:
          ----                                     ----
              UZF ET =     9489112.0871                UZF ET =           4.5675
        UZF RECHARGE =       73224.0000          UZF RECHARGE =       0.0000E+00

            IN - OUT =         677.0726              IN - OUT =       0.0000E+00

          STORAGE:                                 STORAGE:
          --------                                 --------
      STORAGE CHANGE =         677.1349        STORAGE CHANGE =       8.3958E-15

 PERCENT DISCREPANCY IS DIFFERENCE BETWEEN IN-OUT MINUS CHANGE IN STORAGE
 DIVIDED BY THE AVERAGE OF IN AND OUT TIMES 100

 PERCENT DISCREPANCY =           0.00     PERCENT DISCREPANCY =           0.00






 

            AG WELLS      PERIOD    5   STEP   7
 AG WELL      1   LAYER   1   ROW     6   COL     4   RATE   -0.620000    
 AG WELL      2   LAYER   1   ROW     6   COL     5   RATE   -0.620000    
 AG WELL      3   LAYER   1   ROW     7   COL     4   RATE   -0.620000    
 AG WELL      4   LAYER   1   ROW     7   COL     5   RATE   -0.620000    
 AG WELL      5   LAYER   1   ROW     8   COL     4   RATE   -0.620000    
 AG WELL      6   LAYER   1   ROW     8   COL     5   RATE   -0.620000    
 
 

        GW IRRIGATION     PERIOD    5   STEP   7
 AG WELL      1   ROW     6   COL     4   RATE    0.620000    
 AG WELL      2   ROW     6   COL     5   RATE    0.620000    
 AG WELL      3   ROW     7   COL     4   RATE    0.620000    
 AG WELL      4   ROW     7   COL     5   RATE    0.620000    
 AG WELL      5   ROW     8   COL     4   RATE    0.620000    
 AG WELL      6   ROW     8   COL     5   RATE    0.620000    
 
1
  VOLUMETRIC BUDGET FOR AGRICULTURAL FIELDS AT  END OF TIME STEP    7, STRESS PERIOD   5
  ------------------------------------------------------------------------------

     CUMULATIVE VOLUMES      L**3       RATES FOR THIS TIME STEP      L**3/T
     ------------------                 ------------------------

           IN:                                      IN:
           ---                                      ---
               AG WELLS  =     2282932.0000                 AG WELLS  =           3.7200
      DIVERSION SEGMENTS =           0.0000        DIVERSION SEGMENTS =           0.0000
           GW IRRIGATION =           0.0000             GW IRRIGATION =           0.0000
           SW IRRIGATION =           0.0000             SW IRRIGATION =           0.0000
        SYSTEM LOSSES GW =           0.0000          SYSTEM LOSSES GW =           0.0000
        SYSTEM LOSSES SW =           0.0000          SYSTEM LOSSES SW =           0.0000

                TOTAL IN =     2282932.0000                  TOTAL IN =           3.7200

          OUT:                                     OUT:
          ----                                     ----
               AG WELLS  =           0.0000                 AG WELLS  =           0.0000
      DIVERSION SEGMENTS =           0.0000        DIVERSION SEGMENTS =           0.0000
           GW IRRIGATION =     2282932.0000             GW IRRIGATION =           3.7200
           SW IRRIGATION =           0.0000             SW IRRIGATION =           0.0000
        SYSTEM LOSSES GW =           0.0000          SYSTEM LOSSES GW =           0.0000
        SYSTEM LOSSES SW =           0.0000          SYSTEM LOSSES SW =           0.0000

               TOTAL OUT =     2282932.0000                 TOTAL OUT =           3.7200

                IN - OUT =           0.0000                  IN - OUT =           0.0000

     PERCENT DISCREPANCY =           0.00         PERCENT DISCREPANCY =           0.00



1
  VOLUMETRIC BUDGET FOR ENTIRE MODEL AT END OF TIME STEP    7, STRESS PERIOD   5
  ------------------------------------------------------------------------------

     CUMULATIVE VOLUMES      L**3       RATES FOR THIS TIME STEP      L**3/T
     ------------------                 ------------------------

           IN:                                      IN:
           ---                                      ---
             STORAGE     =     8339189.5000               STORAGE     =           5.9780
       CONSTANT HEAD     =           0.0000         CONSTANT HEAD     =           0.0000
     HEAD DEP BOUNDS     =     2451806.7500       HEAD DEP BOUNDS     =           0.2855
      STREAM LEAKAGE     =   106098056.0000        STREAM LEAKAGE     =          11.6112
        UZF RECHARGE     =       73223.9531          UZF RECHARGE     =           0.0000
               GW ET     =           0.0000                 GW ET     =           0.0000
     SURFACE LEAKAGE     =           0.0000       SURFACE LEAKAGE     =           0.0000
           AG WELLS      =           0.0000             AG WELLS      =           0.0000

                TOTAL IN =   116962280.0000                  TOTAL IN =          17.8747

          OUT:                                     OUT:
          ----                                     ----
             STORAGE     =    23196488.0000               STORAGE     =           1.2208
       CONSTANT HEAD     =           0.0000         CONSTANT HEAD     =           0.0000
     HEAD DEP BOUNDS     =     2509607.0000       HEAD DEP BOUNDS     =           0.2957
      STREAM LEAKAGE     =    88825208.0000        STREAM LEAKAGE     =          12.4809
        UZF RECHARGE     =           0.0000          UZF RECHARGE     =           0.0000
               GW ET     =      152550.5000                 GW ET     =           0.1559
     SURFACE LEAKAGE     =           0.0000       SURFACE LEAKAGE     =           0.0000
           AG WELLS      =     2282932.0000             AG WELLS      =           3.7200

               TOTAL OUT =   116966784.0000                 TOTAL OUT =          17.8733

                IN - OUT =       -4504.0000                  IN - OUT =       1.3695E-03

     PERCENT DISCREPANCY =          -0.00         PERCENT DISCREPANCY =           0.01






         TIME SUMMARY AT END OF TIME STEP    7 IN STRESS PERIOD    5
                    SECONDS     MINUTES      HOURS       DAYS        YEARS
                    -----------------------------------------------------------
   TIME STEP LENGTH  87667.      1461.1      24.352      1.0147     2.77799E-03
 STRESS PERIOD TIME 6.13667E+05  10228.      170.46      7.1026     1.94459E-02
         TOTAL TIME 8.59006E+06 1.43168E+05  2386.1      99.422     0.27220    
1
 
 SOLVING FOR HEAD 
                                                   Max.-Head-Change                         Max.-Flux-Residual
  Residual-Control   Outer-Iter.   Inner-Iter.     Column Row Layer    Maximum-Head-Change  Column Row Layer    Maximum-Flux-Residual          L2-NORM 
          0                 1           2             4    7     1      -0.1115485873E-01       4    7    1        -0.5841602314E+00      0.1627948981E+01
          0                 2           2             4    7     1       0.1085062021E-02       4    7    1         0.5841592315E-01      0.1614474096E+00
          0                 3           1             4    7     1      -0.7388871665E-04       4    7    1        -0.4089117333E-02      0.1117729054E-01

    ------------------------------------------------
       NWT REQUIRED            3 OUTER ITERATIONS 
       AND A TOTAL OF          5 INNER ITERATIONS.
    ------------------------------------------------

 OUTPUT CONTROL FOR STRESS PERIOD    5   TIME STEP    8
    PRINT BUDGET
    SAVE BUDGET
 UBDSV1 SAVING "         STORAGE" ON UNIT 102 AT TIME STEP  8, STRESS PERIOD   5
 UBDSV2 SAVING "   CONSTANT HEAD" ON UNIT 102 AT TIME STEP  8, STRESS PERIOD   5
 UBDSV1 SAVING "FLOW RIGHT FACE " ON UNIT 102 AT TIME STEP  8, STRESS PERIOD   5
 UBDSV1 SAVING "FLOW FRONT FACE " ON UNIT 102 AT TIME STEP  8, STRESS PERIOD   5

  HEAD DEP BOUNDS   PERIOD    5   STEP     8
 BOUNDARY      1   LAYER   1   ROW    13   COL     1   RATE   -0.295503    
 BOUNDARY      2   LAYER   1   ROW    14   COL     9   RATE    0.285475    



 STREAM LISTING     PERIOD      5   STEP        8

 LAYER ROW COL. STREAM  RCH.  FLOW INTO     FLOW TO   FLOW OUT OF   OVRLND.     DIRECT     STREAM       STREAM     STREAM     STREAM   STREAMBED  STREAMBED
                SEG.NO.  NO.  STRM. RCH.    AQUIFER    STRM. RCH.    RUNOFF     PRECIP       ET          HEAD       DEPTH      WIDTH   CONDCTNC.   GRADIENT

   1    1    1     1     1    2.8000E+01  2.5860E-01   2.7742E+01  0.000E+00  0.000E+00  0.000E+00  1.09427E+03  1.221E+00  1.361E+01  6.126E-02  1.407E+00
   1    2    2     1     2    2.7742E+01  4.0002E-01   2.7341E+01  0.000E+00  0.000E+00  0.000E+00  1.08928E+03  1.217E+00  1.355E+01  9.487E-02  1.406E+00
   1    3    3     1     3    2.7341E+01  3.4070E-01   2.7001E+01  0.000E+00  0.000E+00  0.000E+00  1.08363E+03  1.212E+00  1.348E+01  8.090E-02  1.404E+00
   1    3    4     1     4    2.7001E+01  3.1335E-01   2.6687E+01  0.000E+00  0.000E+00  0.000E+00  1.07861E+03  1.207E+00  1.342E+01  7.448E-02  1.402E+00
   1    4    5     2     1    2.4687E+01  3.2711E-01   2.4360E+01  0.000E+00  0.000E+00  0.000E+00  1.07313E+03  1.194E+00  1.200E+01  7.800E-02  1.398E+00
   1    5    6     2     2    2.4360E+01  2.5111E-01   2.4109E+01  0.000E+00  0.000E+00  0.000E+00  1.06769E+03  1.185E+00  1.200E+01  6.000E-02  1.395E+00
   1    6    6     2     3    2.4109E+01  2.5067E-01   2.3859E+01  0.000E+00  0.000E+00  0.000E+00  1.06297E+03  1.178E+00  1.200E+01  6.000E-02  1.393E+00
   1    7    6     2     4    2.3859E+01  2.5023E-01   2.3608E+01  0.000E+00  0.000E+00  0.000E+00  1.05825E+03  1.170E+00  1.200E+01  6.000E-02  1.390E+00
   1    8    6     2     5    2.3608E+01  2.4978E-01   2.3359E+01  0.000E+00  0.000E+00  0.000E+00  1.05352E+03  1.163E+00  1.200E+01  6.000E-02  1.388E+00
   1    3    5     3     1    2.0000E+00  2.8252E-01   1.7175E+00  0.000E+00  0.000E+00  0.000E+00  1.07555E+03  1.909E+00  9.636E+00  7.227E-02  1.955E+00
   1    3    6     3     2    1.7175E+00  2.4905E-01   1.4684E+00  0.000E+00  0.000E+00  0.000E+00  1.07264E+03  1.727E+00  8.909E+00  6.682E-02  1.864E+00
   1    3    7     3     3    1.4684E+00  1.9718E-01   1.2712E+00  0.000E+00  0.000E+00  0.000E+00  1.06987E+03  1.555E+00  8.218E+00  5.547E-02  1.777E+00
   1    4    8     3     4    1.2712E+00  2.2567E-01   1.0456E+00  0.000E+00  0.000E+00  0.000E+00  1.06682E+03  1.364E+00  7.455E+00  6.709E-02  1.682E+00
   1    5    8     3     5    1.0456E+00  1.5790E-01   8.8768E-01  0.000E+00  0.000E+00  0.000E+00  1.06362E+03  1.164E+00  6.655E+00  4.991E-02  1.582E+00
   1    6    8     3     6    8.8768E-01  5.5980E-02   8.3170E-01  0.000E+00  0.000E+00  0.000E+00  1.06158E+03  1.036E+00  6.145E+00  1.844E-02  1.518E+00
   1    5   10     4     1    1.0000E+01  9.0919E-02   9.9091E+00  0.000E+00  0.000E+00  0.000E+00  1.07836E+03  6.368E-01  1.000E+01  2.500E-02  1.212E+00
   1    5    9     4     2    9.9091E+00  1.8158E-01   9.7275E+00  0.000E+00  0.000E+00  0.000E+00  1.07154E+03  6.315E-01  1.000E+01  5.000E-02  1.211E+00
   1    6    8     4     3    9.7275E+00  1.2689E-01   9.6006E+00  0.000E+00  0.000E+00  0.000E+00  1.06381E+03  6.256E-01  1.000E+01  3.500E-02  1.209E+00
   1    6    8     5     1    1.0432E+01  2.2686E-01   1.0205E+01  0.000E+00  0.000E+00  0.000E+00  1.05868E+03  6.790E-01  1.542E+01  6.166E-02  1.226E+00
   1    7    7     5     2    1.0205E+01  2.7894E-01   9.9265E+00  0.000E+00  0.000E+00  0.000E+00  1.05417E+03  6.732E-01  1.519E+01  7.594E-02  1.224E+00
   1    8    7     5     3    9.9265E+00  1.9221E-01   9.7343E+00  0.000E+00  0.000E+00  0.000E+00  1.04992E+03  6.676E-01  1.497E+01  5.241E-02  1.223E+00
   1    8    6     5     4    9.7343E+00  1.3577E-01   9.5985E+00  0.000E+00  0.000E+00  0.000E+00  1.04691E+03  6.637E-01  1.482E+01  3.706E-02  1.221E+00
   1    9    6     6     1    3.2957E+01  2.6627E-01   3.2691E+01  0.000E+00  0.000E+00  0.000E+00  1.04417E+03  1.438E+00  1.200E+01  6.000E-02  1.479E+00
   1   10    7     6     2    3.2691E+01  2.6585E-01   3.2425E+01  0.000E+00  0.000E+00  0.000E+00  1.03961E+03  1.431E+00  1.200E+01  6.000E-02  1.477E+00
   1   11    7     6     3    3.2425E+01  2.6542E-01   3.2160E+01  0.000E+00  0.000E+00  0.000E+00  1.03506E+03  1.424E+00  1.200E+01  6.000E-02  1.475E+00
   1   12    7     6     4    3.2160E+01  2.6500E-01   3.1895E+01  0.000E+00  0.000E+00  0.000E+00  1.03051E+03  1.417E+00  1.200E+01  6.000E-02  1.472E+00
   1   13    7     6     5    3.1895E+01  3.4439E-03   3.1891E+01  0.000E+00  0.000E+00  0.000E+00  1.02732E+03  1.413E+00  1.200E+01  2.400E-02  4.783E-02
   1   14    9     7     1    1.5000E+02  1.3317E+00   1.4867E+02  0.000E+00  0.000E+00  0.000E+00  1.03987E+03  2.288E+00  5.529E+01  5.593E-01  7.936E-01
   1   13    8     7     2    1.4867E+02  1.8136E+00   1.4685E+02  0.000E+00  0.000E+00  0.000E+00  1.03478E+03  2.279E+00  5.526E+01  6.148E-01  9.833E-01
   1   13    7     7     3    1.4685E+02  1.4025E+00   1.4545E+02  0.000E+00  0.000E+00  0.000E+00  1.02969E+03  2.271E+00  5.522E+01  5.585E-01  8.371E-01
   1   13    6     8     1    1.7734E+02  8.5998E-01   1.7648E+02  0.000E+00  0.000E+00  0.000E+00  1.02487E+03  2.997E+00  4.345E+01  4.428E-01  6.474E-01
   1   13    5     8     2    1.7648E+02  9.5258E-02   1.7639E+02  0.000E+00  0.000E+00  0.000E+00  1.01862E+03  2.994E+00  4.341E+01  4.423E-01  7.178E-02
   1   13    4     8     3    1.7639E+02 -2.9725E+00   1.7936E+02  0.000E+00  0.000E+00  0.000E+00  1.01238E+03  3.003E+00  4.354E+01  4.437E+00 -2.233E-01
   1   13    3     8     4    1.7936E+02 -4.0806E+00   1.8344E+02  0.000E+00  0.000E+00  0.000E+00  1.00615E+03  3.025E+00  4.386E+01  4.470E+00 -3.043E-01
   1   13    2     8     5    1.8344E+02 -3.0368E+00   1.8648E+02  0.000E+00  0.000E+00  0.000E+00  9.99922E+02  3.047E+00  4.418E+01  4.502E+00 -2.248E-01
   1   13    1     8     6    1.8648E+02 -2.2759E+00   1.8875E+02  0.000E+00  0.000E+00  0.000E+00  9.94938E+02  3.063E+00  4.442E+01  2.716E+00 -2.793E-01



 UBDSV3 SAVING "           GW ET" ON UNIT  61 AT TIME STEP  8, STRESS PERIOD   5
 UBDSV3 SAVING "    UZF RECHARGE" ON UNIT  61 AT TIME STEP  8, STRESS PERIOD   5
 UBDSV3 SAVING " SURFACE LEAKAGE" ON UNIT  61 AT TIME STEP  8, STRESS PERIOD   5
 UBDSV3 SAVING "       HORT+DUNN" ON UNIT  61 AT TIME STEP  8, STRESS PERIOD   5
 UBDSV3 SAVING "  STORAGE CHANGE" ON UNIT  61 AT TIME STEP  8, STRESS PERIOD   5


UNSATURATED ZONE PACKAGE VOLUMETRIC BUDGET FOR  TIME STEP     8 STRESS PERIOD    5
  ------------------------------------------------------------------------------



     CUMULATIVE VOLUMES      L**3       RATES FOR THIS TIME STEP      L**3/T
     ------------------                 ------------------------

           IN:                                      IN:
           ---                                      ---
        INFILTRATION =     9963430.6400          INFILTRATION =           4.5675

          OUT:                                     OUT:
          ----                                     ----
              UZF ET =     9889529.5674                UZF ET =           4.5675
        UZF RECHARGE =       73224.0000          UZF RECHARGE =       0.0000E+00

            IN - OUT =         677.0726              IN - OUT =       0.0000E+00

          STORAGE:                                 STORAGE:
          --------                                 --------
      STORAGE CHANGE =         677.1349        STORAGE CHANGE =       8.3964E-15

 PERCENT DISCREPANCY IS DIFFERENCE BETWEEN IN-OUT MINUS CHANGE IN STORAGE
 DIVIDED BY THE AVERAGE OF IN AND OUT TIMES 100

 PERCENT DISCREPANCY =           0.00     PERCENT DISCREPANCY =           0.00






 

            AG WELLS      PERIOD    5   STEP   8
 AG WELL      1   LAYER   1   ROW     6   COL     4   RATE   -0.620000    
 AG WELL      2   LAYER   1   ROW     6   COL     5   RATE   -0.620000    
 AG WELL      3   LAYER   1   ROW     7   COL     4   RATE   -0.620000    
 AG WELL      4   LAYER   1   ROW     7   COL     5   RATE   -0.620000    
 AG WELL      5   LAYER   1   ROW     8   COL     4   RATE   -0.620000    
 AG WELL      6   LAYER   1   ROW     8   COL     5   RATE   -0.620000    
 
 

        GW IRRIGATION     PERIOD    5   STEP   8
 AG WELL      1   ROW     6   COL     4   RATE    0.620000    
 AG WELL      2   ROW     6   COL     5   RATE    0.620000    
 AG WELL      3   ROW     7   COL     4   RATE    0.620000    
 AG WELL      4   ROW     7   COL     5   RATE    0.620000    
 AG WELL      5   ROW     8   COL     4   RATE    0.620000    
 AG WELL      6   ROW     8   COL     5   RATE    0.620000    
 
1
  VOLUMETRIC BUDGET FOR AGRICULTURAL FIELDS AT  END OF TIME STEP    8, STRESS PERIOD   5
  ------------------------------------------------------------------------------

     CUMULATIVE VOLUMES      L**3       RATES FOR THIS TIME STEP      L**3/T
     ------------------                 ------------------------

           IN:                                      IN:
           ---                                      ---
               AG WELLS  =     2609052.0000                 AG WELLS  =           3.7200
      DIVERSION SEGMENTS =           0.0000        DIVERSION SEGMENTS =           0.0000
           GW IRRIGATION =           0.0000             GW IRRIGATION =           0.0000
           SW IRRIGATION =           0.0000             SW IRRIGATION =           0.0000
        SYSTEM LOSSES GW =           0.0000          SYSTEM LOSSES GW =           0.0000
        SYSTEM LOSSES SW =           0.0000          SYSTEM LOSSES SW =           0.0000

                TOTAL IN =     2609052.0000                  TOTAL IN =           3.7200

          OUT:                                     OUT:
          ----                                     ----
               AG WELLS  =           0.0000                 AG WELLS  =           0.0000
      DIVERSION SEGMENTS =           0.0000        DIVERSION SEGMENTS =           0.0000
           GW IRRIGATION =     2609052.0000             GW IRRIGATION =           3.7200
           SW IRRIGATION =           0.0000             SW IRRIGATION =           0.0000
        SYSTEM LOSSES GW =           0.0000          SYSTEM LOSSES GW =           0.0000
        SYSTEM LOSSES SW =           0.0000          SYSTEM LOSSES SW =           0.0000

               TOTAL OUT =     2609052.0000                 TOTAL OUT =           3.7200

                IN - OUT =           0.0000                  IN - OUT =           0.0000

     PERCENT DISCREPANCY =           0.00         PERCENT DISCREPANCY =           0.00



1
  VOLUMETRIC BUDGET FOR ENTIRE MODEL AT END OF TIME STEP    8, STRESS PERIOD   5
  ------------------------------------------------------------------------------

     CUMULATIVE VOLUMES      L**3       RATES FOR THIS TIME STEP      L**3/T
     ------------------                 ------------------------

           IN:                                      IN:
           ---                                      ---
             STORAGE     =     8848680.0000               STORAGE     =           5.8117
       CONSTANT HEAD     =           0.0000         CONSTANT HEAD     =           0.0000
     HEAD DEP BOUNDS     =     2476833.5000       HEAD DEP BOUNDS     =           0.2855
      STREAM LEAKAGE     =   107116040.0000        STREAM LEAKAGE     =          11.6120
        UZF RECHARGE     =       73223.9531          UZF RECHARGE     =           0.0000
               GW ET     =           0.0000                 GW ET     =           0.0000
     SURFACE LEAKAGE     =           0.0000       SURFACE LEAKAGE     =           0.0000
           AG WELLS      =           0.0000             AG WELLS      =           0.0000

                TOTAL IN =   118514776.0000                  TOTAL IN =          17.7092

          OUT:                                     OUT:
          ----                                     ----
             STORAGE     =    23300758.0000               STORAGE     =           1.1894
       CONSTANT HEAD     =           0.0000         CONSTANT HEAD     =           0.0000
     HEAD DEP BOUNDS     =     2535512.7500       HEAD DEP BOUNDS     =           0.2955
      STREAM LEAKAGE     =    89909280.0000        STREAM LEAKAGE     =          12.3658
        UZF RECHARGE     =           0.0000          UZF RECHARGE     =           0.0000
               GW ET     =      164574.2500                 GW ET     =           0.1372
     SURFACE LEAKAGE     =           0.0000       SURFACE LEAKAGE     =           0.0000
           AG WELLS      =     2609052.0000             AG WELLS      =           3.7200

               TOTAL OUT =   118519184.0000                 TOTAL OUT =          17.7079

                IN - OUT =       -4408.0000                  IN - OUT =       1.3313E-03

     PERCENT DISCREPANCY =          -0.00         PERCENT DISCREPANCY =           0.01






         TIME SUMMARY AT END OF TIME STEP    8 IN STRESS PERIOD    5
                    SECONDS     MINUTES      HOURS       DAYS        YEARS
                    -----------------------------------------------------------
   TIME STEP LENGTH  87667.      1461.1      24.352      1.0147     2.77799E-03
 STRESS PERIOD TIME 7.01333E+05  11689.      194.81      8.1173     2.22239E-02
         TOTAL TIME 8.67773E+06 1.44629E+05  2410.5      100.44     0.27498    
1
 
 SOLVING FOR HEAD 
                                                   Max.-Head-Change                         Max.-Flux-Residual
  Residual-Control   Outer-Iter.   Inner-Iter.     Column Row Layer    Maximum-Head-Change  Column Row Layer    Maximum-Flux-Residual          L2-NORM 
          0                 1           2             4    7     1      -0.1106459614E-01       4    7    1        -0.5796010703E+00      0.1567735987E+01
          0                 2           2             4    7     1       0.1076281884E-02       4    7    1         0.5796000353E-01      0.1556047253E+00
          0                 3           1             4    7     1      -0.7329082270E-04       4    7    1        -0.4057203000E-02      0.1078432939E-01

    ------------------------------------------------
       NWT REQUIRED            3 OUTER ITERATIONS 
       AND A TOTAL OF          5 INNER ITERATIONS.
    ------------------------------------------------

 OUTPUT CONTROL FOR STRESS PERIOD    5   TIME STEP    9
    PRINT BUDGET
    SAVE BUDGET
 UBDSV1 SAVING "         STORAGE" ON UNIT 102 AT TIME STEP  9, STRESS PERIOD   5
 UBDSV2 SAVING "   CONSTANT HEAD" ON UNIT 102 AT TIME STEP  9, STRESS PERIOD   5
 UBDSV1 SAVING "FLOW RIGHT FACE " ON UNIT 102 AT TIME STEP  9, STRESS PERIOD   5
 UBDSV1 SAVING "FLOW FRONT FACE " ON UNIT 102 AT TIME STEP  9, STRESS PERIOD   5

  HEAD DEP BOUNDS   PERIOD    5   STEP     9
 BOUNDARY      1   LAYER   1   ROW    13   COL     1   RATE   -0.295303    
 BOUNDARY      2   LAYER   1   ROW    14   COL     9   RATE    0.285476    



 STREAM LISTING     PERIOD      5   STEP        9

 LAYER ROW COL. STREAM  RCH.  FLOW INTO     FLOW TO   FLOW OUT OF   OVRLND.     DIRECT     STREAM       STREAM     STREAM     STREAM   STREAMBED  STREAMBED
                SEG.NO.  NO.  STRM. RCH.    AQUIFER    STRM. RCH.    RUNOFF     PRECIP       ET          HEAD       DEPTH      WIDTH   CONDCTNC.   GRADIENT

   1    1    1     1     1    2.8000E+01  2.5860E-01   2.7742E+01  0.000E+00  0.000E+00  0.000E+00  1.09427E+03  1.221E+00  1.361E+01  6.126E-02  1.407E+00
   1    2    2     1     2    2.7742E+01  4.0002E-01   2.7341E+01  0.000E+00  0.000E+00  0.000E+00  1.08928E+03  1.217E+00  1.355E+01  9.487E-02  1.406E+00
   1    3    3     1     3    2.7341E+01  3.4070E-01   2.7001E+01  0.000E+00  0.000E+00  0.000E+00  1.08363E+03  1.212E+00  1.348E+01  8.090E-02  1.404E+00
   1    3    4     1     4    2.7001E+01  3.1335E-01   2.6687E+01  0.000E+00  0.000E+00  0.000E+00  1.07861E+03  1.207E+00  1.342E+01  7.448E-02  1.402E+00
   1    4    5     2     1    2.4687E+01  3.2711E-01   2.4360E+01  0.000E+00  0.000E+00  0.000E+00  1.07313E+03  1.194E+00  1.200E+01  7.800E-02  1.398E+00
   1    5    6     2     2    2.4360E+01  2.5111E-01   2.4109E+01  0.000E+00  0.000E+00  0.000E+00  1.06769E+03  1.185E+00  1.200E+01  6.000E-02  1.395E+00
   1    6    6     2     3    2.4109E+01  2.5067E-01   2.3859E+01  0.000E+00  0.000E+00  0.000E+00  1.06297E+03  1.178E+00  1.200E+01  6.000E-02  1.393E+00
   1    7    6     2     4    2.3859E+01  2.5023E-01   2.3608E+01  0.000E+00  0.000E+00  0.000E+00  1.05825E+03  1.170E+00  1.200E+01  6.000E-02  1.390E+00
   1    8    6     2     5    2.3608E+01  2.4978E-01   2.3359E+01  0.000E+00  0.000E+00  0.000E+00  1.05352E+03  1.163E+00  1.200E+01  6.000E-02  1.388E+00
   1    3    5     3     1    2.0000E+00  2.8252E-01   1.7175E+00  0.000E+00  0.000E+00  0.000E+00  1.07555E+03  1.909E+00  9.636E+00  7.227E-02  1.955E+00
   1    3    6     3     2    1.7175E+00  2.4905E-01   1.4684E+00  0.000E+00  0.000E+00  0.000E+00  1.07264E+03  1.727E+00  8.909E+00  6.682E-02  1.864E+00
   1    3    7     3     3    1.4684E+00  1.9718E-01   1.2712E+00  0.000E+00  0.000E+00  0.000E+00  1.06987E+03  1.555E+00  8.218E+00  5.547E-02  1.777E+00
   1    4    8     3     4    1.2712E+00  2.2567E-01   1.0456E+00  0.000E+00  0.000E+00  0.000E+00  1.06682E+03  1.364E+00  7.455E+00  6.709E-02  1.682E+00
   1    5    8     3     5    1.0456E+00  1.5790E-01   8.8768E-01  0.000E+00  0.000E+00  0.000E+00  1.06362E+03  1.164E+00  6.655E+00  4.991E-02  1.582E+00
   1    6    8     3     6    8.8768E-01  5.5980E-02   8.3170E-01  0.000E+00  0.000E+00  0.000E+00  1.06158E+03  1.036E+00  6.145E+00  1.844E-02  1.518E+00
   1    5   10     4     1    1.0000E+01  9.0919E-02   9.9091E+00  0.000E+00  0.000E+00  0.000E+00  1.07836E+03  6.368E-01  1.000E+01  2.500E-02  1.212E+00
   1    5    9     4     2    9.9091E+00  1.8158E-01   9.7275E+00  0.000E+00  0.000E+00  0.000E+00  1.07154E+03  6.315E-01  1.000E+01  5.000E-02  1.211E+00
   1    6    8     4     3    9.7275E+00  1.2689E-01   9.6006E+00  0.000E+00  0.000E+00  0.000E+00  1.06381E+03  6.256E-01  1.000E+01  3.500E-02  1.209E+00
   1    6    8     5     1    1.0432E+01  2.2686E-01   1.0205E+01  0.000E+00  0.000E+00  0.000E+00  1.05868E+03  6.790E-01  1.542E+01  6.166E-02  1.226E+00
   1    7    7     5     2    1.0205E+01  2.7894E-01   9.9265E+00  0.000E+00  0.000E+00  0.000E+00  1.05417E+03  6.732E-01  1.519E+01  7.594E-02  1.224E+00
   1    8    7     5     3    9.9265E+00  1.9221E-01   9.7343E+00  0.000E+00  0.000E+00  0.000E+00  1.04992E+03  6.676E-01  1.497E+01  5.241E-02  1.223E+00
   1    8    6     5     4    9.7343E+00  1.3577E-01   9.5985E+00  0.000E+00  0.000E+00  0.000E+00  1.04691E+03  6.637E-01  1.482E+01  3.706E-02  1.221E+00
   1    9    6     6     1    3.2957E+01  2.6627E-01   3.2691E+01  0.000E+00  0.000E+00  0.000E+00  1.04417E+03  1.438E+00  1.200E+01  6.000E-02  1.479E+00
   1   10    7     6     2    3.2691E+01  2.6585E-01   3.2425E+01  0.000E+00  0.000E+00  0.000E+00  1.03961E+03  1.431E+00  1.200E+01  6.000E-02  1.477E+00
   1   11    7     6     3    3.2425E+01  2.6542E-01   3.2160E+01  0.000E+00  0.000E+00  0.000E+00  1.03506E+03  1.424E+00  1.200E+01  6.000E-02  1.475E+00
   1   12    7     6     4    3.2160E+01  2.6500E-01   3.1895E+01  0.000E+00  0.000E+00  0.000E+00  1.03051E+03  1.417E+00  1.200E+01  6.000E-02  1.472E+00
   1   13    7     6     5    3.1895E+01  3.4365E-03   3.1891E+01  0.000E+00  0.000E+00  0.000E+00  1.02732E+03  1.413E+00  1.200E+01  2.400E-02  4.773E-02
   1   14    9     7     1    1.5000E+02  1.3317E+00   1.4867E+02  0.000E+00  0.000E+00  0.000E+00  1.03987E+03  2.288E+00  5.529E+01  5.593E-01  7.936E-01
   1   13    8     7     2    1.4867E+02  1.8134E+00   1.4685E+02  0.000E+00  0.000E+00  0.000E+00  1.03478E+03  2.279E+00  5.526E+01  6.148E-01  9.832E-01
   1   13    7     7     3    1.4685E+02  1.4024E+00   1.4545E+02  0.000E+00  0.000E+00  0.000E+00  1.02969E+03  2.271E+00  5.522E+01  5.585E-01  8.370E-01
   1   13    6     8     1    1.7734E+02  8.6053E-01   1.7648E+02  0.000E+00  0.000E+00  0.000E+00  1.02487E+03  2.997E+00  4.345E+01  4.428E-01  6.478E-01
   1   13    5     8     2    1.7648E+02  9.5861E-02   1.7639E+02  0.000E+00  0.000E+00  0.000E+00  1.01862E+03  2.994E+00  4.341E+01  4.423E-01  7.224E-02
   1   13    4     8     3    1.7639E+02 -2.9433E+00   1.7933E+02  0.000E+00  0.000E+00  0.000E+00  1.01238E+03  3.003E+00  4.354E+01  4.437E+00 -2.211E-01
   1   13    3     8     4    1.7933E+02 -4.0508E+00   1.8338E+02  0.000E+00  0.000E+00  0.000E+00  1.00615E+03  3.025E+00  4.386E+01  4.469E+00 -3.021E-01
   1   13    2     8     5    1.8338E+02 -3.0039E+00   1.8639E+02  0.000E+00  0.000E+00  0.000E+00  9.99922E+02  3.047E+00  4.418E+01  4.502E+00 -2.224E-01
   1   13    1     8     6    1.8639E+02 -2.2628E+00   1.8865E+02  0.000E+00  0.000E+00  0.000E+00  9.94938E+02  3.063E+00  4.441E+01  2.715E+00 -2.778E-01



 UBDSV3 SAVING "           GW ET" ON UNIT  61 AT TIME STEP  9, STRESS PERIOD   5
 UBDSV3 SAVING "    UZF RECHARGE" ON UNIT  61 AT TIME STEP  9, STRESS PERIOD   5
 UBDSV3 SAVING " SURFACE LEAKAGE" ON UNIT  61 AT TIME STEP  9, STRESS PERIOD   5
 UBDSV3 SAVING "       HORT+DUNN" ON UNIT  61 AT TIME STEP  9, STRESS PERIOD   5
 UBDSV3 SAVING "  STORAGE CHANGE" ON UNIT  61 AT TIME STEP  9, STRESS PERIOD   5


UNSATURATED ZONE PACKAGE VOLUMETRIC BUDGET FOR  TIME STEP     9 STRESS PERIOD    5
  ------------------------------------------------------------------------------



     CUMULATIVE VOLUMES      L**3       RATES FOR THIS TIME STEP      L**3/T
     ------------------                 ------------------------

           IN:                                      IN:
           ---                                      ---
        INFILTRATION =    10363848.1202          INFILTRATION =           4.5675

          OUT:                                     OUT:
          ----                                     ----
              UZF ET =    10289947.0476                UZF ET =           4.5675
        UZF RECHARGE =       73224.0000          UZF RECHARGE =       0.0000E+00

            IN - OUT =         677.0726              IN - OUT =       0.0000E+00

          STORAGE:                                 STORAGE:
          --------                                 --------
      STORAGE CHANGE =         677.1349        STORAGE CHANGE =       8.3962E-15

 PERCENT DISCREPANCY IS DIFFERENCE BETWEEN IN-OUT MINUS CHANGE IN STORAGE
 DIVIDED BY THE AVERAGE OF IN AND OUT TIMES 100

 PERCENT DISCREPANCY =           0.00     PERCENT DISCREPANCY =           0.00






 

            AG WELLS      PERIOD    5   STEP   9
 AG WELL      1   LAYER   1   ROW     6   COL     4   RATE   -0.620000    
 AG WELL      2   LAYER   1   ROW     6   COL     5   RATE   -0.620000    
 AG WELL      3   LAYER   1   ROW     7   COL     4   RATE   -0.620000    
 AG WELL      4   LAYER   1   ROW     7   COL     5   RATE   -0.620000    
 AG WELL      5   LAYER   1   ROW     8   COL     4   RATE   -0.620000    
 AG WELL      6   LAYER   1   ROW     8   COL     5   RATE   -0.620000    
 
 

        GW IRRIGATION     PERIOD    5   STEP   9
 AG WELL      1   ROW     6   COL     4   RATE    0.620000    
 AG WELL      2   ROW     6   COL     5   RATE    0.620000    
 AG WELL      3   ROW     7   COL     4   RATE    0.620000    
 AG WELL      4   ROW     7   COL     5   RATE    0.620000    
 AG WELL      5   ROW     8   COL     4   RATE    0.620000    
 AG WELL      6   ROW     8   COL     5   RATE    0.620000    
 
1
  VOLUMETRIC BUDGET FOR AGRICULTURAL FIELDS AT  END OF TIME STEP    9, STRESS PERIOD   5
  ------------------------------------------------------------------------------

     CUMULATIVE VOLUMES      L**3       RATES FOR THIS TIME STEP      L**3/T
     ------------------                 ------------------------

           IN:                                      IN:
           ---                                      ---
               AG WELLS  =     2935172.0000                 AG WELLS  =           3.7200
      DIVERSION SEGMENTS =           0.0000        DIVERSION SEGMENTS =           0.0000
           GW IRRIGATION =           0.0000             GW IRRIGATION =           0.0000
           SW IRRIGATION =           0.0000             SW IRRIGATION =           0.0000
        SYSTEM LOSSES GW =           0.0000          SYSTEM LOSSES GW =           0.0000
        SYSTEM LOSSES SW =           0.0000          SYSTEM LOSSES SW =           0.0000

                TOTAL IN =     2935172.0000                  TOTAL IN =           3.7200

          OUT:                                     OUT:
          ----                                     ----
               AG WELLS  =           0.0000                 AG WELLS  =           0.0000
      DIVERSION SEGMENTS =           0.0000        DIVERSION SEGMENTS =           0.0000
           GW IRRIGATION =     2935172.0000             GW IRRIGATION =           3.7200
           SW IRRIGATION =           0.0000             SW IRRIGATION =           0.0000
        SYSTEM LOSSES GW =           0.0000          SYSTEM LOSSES GW =           0.0000
        SYSTEM LOSSES SW =           0.0000          SYSTEM LOSSES SW =           0.0000

               TOTAL OUT =     2935172.0000                 TOTAL OUT =           3.7200

                IN - OUT =           0.0000                  IN - OUT =           0.0000

     PERCENT DISCREPANCY =           0.00         PERCENT DISCREPANCY =           0.00



1
  VOLUMETRIC BUDGET FOR ENTIRE MODEL AT END OF TIME STEP    9, STRESS PERIOD   5
  ------------------------------------------------------------------------------

     CUMULATIVE VOLUMES      L**3       RATES FOR THIS TIME STEP      L**3/T
     ------------------                 ------------------------

           IN:                                      IN:
           ---                                      ---
             STORAGE     =     9344772.0000               STORAGE     =           5.6588
       CONSTANT HEAD     =           0.0000         CONSTANT HEAD     =           0.0000
     HEAD DEP BOUNDS     =     2501860.2500       HEAD DEP BOUNDS     =           0.2855
      STREAM LEAKAGE     =   108134104.0000        STREAM LEAKAGE     =          11.6129
        UZF RECHARGE     =       73223.9531          UZF RECHARGE     =           0.0000
               GW ET     =           0.0000                 GW ET     =           0.0000
     SURFACE LEAKAGE     =           0.0000       SURFACE LEAKAGE     =           0.0000
           AG WELLS      =           0.0000             AG WELLS      =           0.0000

                TOTAL IN =   120053960.0000                  TOTAL IN =          17.5572

          OUT:                                     OUT:
          ----                                     ----
             STORAGE     =    23402406.0000               STORAGE     =           1.1595
       CONSTANT HEAD     =           0.0000         CONSTANT HEAD     =           0.0000
     HEAD DEP BOUNDS     =     2561401.0000       HEAD DEP BOUNDS     =           0.2953
      STREAM LEAKAGE     =    90984136.0000        STREAM LEAKAGE     =          12.2607
        UZF RECHARGE     =           0.0000          UZF RECHARGE     =           0.0000
               GW ET     =      175128.7188                 GW ET     =           0.1204
     SURFACE LEAKAGE     =           0.0000       SURFACE LEAKAGE     =           0.0000
           AG WELLS      =     2935172.0000             AG WELLS      =           3.7200

               TOTAL OUT =   120058240.0000                 TOTAL OUT =          17.5559

                IN - OUT =       -4280.0000                  IN - OUT =       1.2970E-03

     PERCENT DISCREPANCY =          -0.00         PERCENT DISCREPANCY =           0.01






         TIME SUMMARY AT END OF TIME STEP    9 IN STRESS PERIOD    5
                    SECONDS     MINUTES      HOURS       DAYS        YEARS
                    -----------------------------------------------------------
   TIME STEP LENGTH  87667.      1461.1      24.352      1.0147     2.77799E-03
 STRESS PERIOD TIME 7.89000E+05  13150.      219.17      9.1319     2.50019E-02
         TOTAL TIME 8.76540E+06 1.46090E+05  2434.8      101.45     0.27776    
1
 
 SOLVING FOR HEAD 
                                                   Max.-Head-Change                         Max.-Flux-Residual
  Residual-Control   Outer-Iter.   Inner-Iter.     Column Row Layer    Maximum-Head-Change  Column Row Layer    Maximum-Flux-Residual          L2-NORM 
          0                 1           2             4    7     1      -0.1097202385E-01       4    7    1        -0.5749061260E+00      0.1514245853E+01
          0                 2           2             4    7     1       0.1067277084E-02       4    7    1         0.5749050617E-01      0.1504114089E+00
          0                 3           1             4    7     1      -0.7267762947E-04       4    7    1        -0.4024338184E-02      0.1043536035E-01

    ------------------------------------------------
       NWT REQUIRED            3 OUTER ITERATIONS 
       AND A TOTAL OF          5 INNER ITERATIONS.
    ------------------------------------------------

 OUTPUT CONTROL FOR STRESS PERIOD    5   TIME STEP   10
    PRINT BUDGET
    SAVE BUDGET
 UBDSV1 SAVING "         STORAGE" ON UNIT 102 AT TIME STEP 10, STRESS PERIOD   5
 UBDSV2 SAVING "   CONSTANT HEAD" ON UNIT 102 AT TIME STEP 10, STRESS PERIOD   5
 UBDSV1 SAVING "FLOW RIGHT FACE " ON UNIT 102 AT TIME STEP 10, STRESS PERIOD   5
 UBDSV1 SAVING "FLOW FRONT FACE " ON UNIT 102 AT TIME STEP 10, STRESS PERIOD   5

  HEAD DEP BOUNDS   PERIOD    5   STEP    10
 BOUNDARY      1   LAYER   1   ROW    13   COL     1   RATE   -0.295110    
 BOUNDARY      2   LAYER   1   ROW    14   COL     9   RATE    0.285477    



 STREAM LISTING     PERIOD      5   STEP       10

 LAYER ROW COL. STREAM  RCH.  FLOW INTO     FLOW TO   FLOW OUT OF   OVRLND.     DIRECT     STREAM       STREAM     STREAM     STREAM   STREAMBED  STREAMBED
                SEG.NO.  NO.  STRM. RCH.    AQUIFER    STRM. RCH.    RUNOFF     PRECIP       ET          HEAD       DEPTH      WIDTH   CONDCTNC.   GRADIENT

   1    1    1     1     1    2.8000E+01  2.5860E-01   2.7742E+01  0.000E+00  0.000E+00  0.000E+00  1.09427E+03  1.221E+00  1.361E+01  6.126E-02  1.407E+00
   1    2    2     1     2    2.7742E+01  4.0002E-01   2.7341E+01  0.000E+00  0.000E+00  0.000E+00  1.08928E+03  1.217E+00  1.355E+01  9.487E-02  1.406E+00
   1    3    3     1     3    2.7341E+01  3.4070E-01   2.7001E+01  0.000E+00  0.000E+00  0.000E+00  1.08363E+03  1.212E+00  1.348E+01  8.090E-02  1.404E+00
   1    3    4     1     4    2.7001E+01  3.1335E-01   2.6687E+01  0.000E+00  0.000E+00  0.000E+00  1.07861E+03  1.207E+00  1.342E+01  7.448E-02  1.402E+00
   1    4    5     2     1    2.4687E+01  3.2711E-01   2.4360E+01  0.000E+00  0.000E+00  0.000E+00  1.07313E+03  1.194E+00  1.200E+01  7.800E-02  1.398E+00
   1    5    6     2     2    2.4360E+01  2.5111E-01   2.4109E+01  0.000E+00  0.000E+00  0.000E+00  1.06769E+03  1.185E+00  1.200E+01  6.000E-02  1.395E+00
   1    6    6     2     3    2.4109E+01  2.5067E-01   2.3859E+01  0.000E+00  0.000E+00  0.000E+00  1.06297E+03  1.178E+00  1.200E+01  6.000E-02  1.393E+00
   1    7    6     2     4    2.3859E+01  2.5023E-01   2.3608E+01  0.000E+00  0.000E+00  0.000E+00  1.05825E+03  1.170E+00  1.200E+01  6.000E-02  1.390E+00
   1    8    6     2     5    2.3608E+01  2.4978E-01   2.3359E+01  0.000E+00  0.000E+00  0.000E+00  1.05352E+03  1.163E+00  1.200E+01  6.000E-02  1.388E+00
   1    3    5     3     1    2.0000E+00  2.8252E-01   1.7175E+00  0.000E+00  0.000E+00  0.000E+00  1.07555E+03  1.909E+00  9.636E+00  7.227E-02  1.955E+00
   1    3    6     3     2    1.7175E+00  2.4905E-01   1.4684E+00  0.000E+00  0.000E+00  0.000E+00  1.07264E+03  1.727E+00  8.909E+00  6.682E-02  1.864E+00
   1    3    7     3     3    1.4684E+00  1.9718E-01   1.2712E+00  0.000E+00  0.000E+00  0.000E+00  1.06987E+03  1.555E+00  8.218E+00  5.547E-02  1.777E+00
   1    4    8     3     4    1.2712E+00  2.2567E-01   1.0456E+00  0.000E+00  0.000E+00  0.000E+00  1.06682E+03  1.364E+00  7.455E+00  6.709E-02  1.682E+00
   1    5    8     3     5    1.0456E+00  1.5790E-01   8.8768E-01  0.000E+00  0.000E+00  0.000E+00  1.06362E+03  1.164E+00  6.655E+00  4.991E-02  1.582E+00
   1    6    8     3     6    8.8768E-01  5.5980E-02   8.3170E-01  0.000E+00  0.000E+00  0.000E+00  1.06158E+03  1.036E+00  6.145E+00  1.844E-02  1.518E+00
   1    5   10     4     1    1.0000E+01  9.0919E-02   9.9091E+00  0.000E+00  0.000E+00  0.000E+00  1.07836E+03  6.368E-01  1.000E+01  2.500E-02  1.212E+00
   1    5    9     4     2    9.9091E+00  1.8158E-01   9.7275E+00  0.000E+00  0.000E+00  0.000E+00  1.07154E+03  6.315E-01  1.000E+01  5.000E-02  1.211E+00
   1    6    8     4     3    9.7275E+00  1.2689E-01   9.6006E+00  0.000E+00  0.000E+00  0.000E+00  1.06381E+03  6.256E-01  1.000E+01  3.500E-02  1.209E+00
   1    6    8     5     1    1.0432E+01  2.2686E-01   1.0205E+01  0.000E+00  0.000E+00  0.000E+00  1.05868E+03  6.790E-01  1.542E+01  6.166E-02  1.226E+00
   1    7    7     5     2    1.0205E+01  2.7894E-01   9.9265E+00  0.000E+00  0.000E+00  0.000E+00  1.05417E+03  6.732E-01  1.519E+01  7.594E-02  1.224E+00
   1    8    7     5     3    9.9265E+00  1.9221E-01   9.7343E+00  0.000E+00  0.000E+00  0.000E+00  1.04992E+03  6.676E-01  1.497E+01  5.241E-02  1.223E+00
   1    8    6     5     4    9.7343E+00  1.3577E-01   9.5985E+00  0.000E+00  0.000E+00  0.000E+00  1.04691E+03  6.637E-01  1.482E+01  3.706E-02  1.221E+00
   1    9    6     6     1    3.2957E+01  2.6627E-01   3.2691E+01  0.000E+00  0.000E+00  0.000E+00  1.04417E+03  1.438E+00  1.200E+01  6.000E-02  1.479E+00
   1   10    7     6     2    3.2691E+01  2.6585E-01   3.2425E+01  0.000E+00  0.000E+00  0.000E+00  1.03961E+03  1.431E+00  1.200E+01  6.000E-02  1.477E+00
   1   11    7     6     3    3.2425E+01  2.6542E-01   3.2160E+01  0.000E+00  0.000E+00  0.000E+00  1.03506E+03  1.424E+00  1.200E+01  6.000E-02  1.475E+00
   1   12    7     6     4    3.2160E+01  2.6500E-01   3.1895E+01  0.000E+00  0.000E+00  0.000E+00  1.03051E+03  1.417E+00  1.200E+01  6.000E-02  1.472E+00
   1   13    7     6     5    3.1895E+01  3.4296E-03   3.1891E+01  0.000E+00  0.000E+00  0.000E+00  1.02732E+03  1.413E+00  1.200E+01  2.400E-02  4.763E-02
   1   14    9     7     1    1.5000E+02  1.3317E+00   1.4867E+02  0.000E+00  0.000E+00  0.000E+00  1.03987E+03  2.288E+00  5.529E+01  5.593E-01  7.937E-01
   1   13    8     7     2    1.4867E+02  1.8133E+00   1.4686E+02  0.000E+00  0.000E+00  0.000E+00  1.03478E+03  2.279E+00  5.526E+01  6.148E-01  9.832E-01
   1   13    7     7     3    1.4686E+02  1.4022E+00   1.4545E+02  0.000E+00  0.000E+00  0.000E+00  1.02969E+03  2.271E+00  5.522E+01  5.585E-01  8.369E-01
   1   13    6     8     1    1.7734E+02  8.6106E-01   1.7648E+02  0.000E+00  0.000E+00  0.000E+00  1.02487E+03  2.997E+00  4.345E+01  4.428E-01  6.482E-01
   1   13    5     8     2    1.7648E+02  9.6467E-02   1.7639E+02  0.000E+00  0.000E+00  0.000E+00  1.01862E+03  2.994E+00  4.341E+01  4.423E-01  7.269E-02
   1   13    4     8     3    1.7639E+02 -2.9173E+00   1.7930E+02  0.000E+00  0.000E+00  0.000E+00  1.01238E+03  3.003E+00  4.354E+01  4.437E+00 -2.192E-01
   1   13    3     8     4    1.7930E+02 -4.0239E+00   1.8333E+02  0.000E+00  0.000E+00  0.000E+00  1.00615E+03  3.024E+00  4.385E+01  4.469E+00 -3.001E-01
   1   13    2     8     5    1.8333E+02 -2.9734E+00   1.8630E+02  0.000E+00  0.000E+00  0.000E+00  9.99921E+02  3.046E+00  4.417E+01  4.501E+00 -2.202E-01
   1   13    1     8     6    1.8630E+02 -2.2501E+00   1.8855E+02  0.000E+00  0.000E+00  0.000E+00  9.94937E+02  3.062E+00  4.440E+01  2.715E+00 -2.763E-01



 UBDSV3 SAVING "           GW ET" ON UNIT  61 AT TIME STEP 10, STRESS PERIOD   5
 UBDSV3 SAVING "    UZF RECHARGE" ON UNIT  61 AT TIME STEP 10, STRESS PERIOD   5
 UBDSV3 SAVING " SURFACE LEAKAGE" ON UNIT  61 AT TIME STEP 10, STRESS PERIOD   5
 UBDSV3 SAVING "       HORT+DUNN" ON UNIT  61 AT TIME STEP 10, STRESS PERIOD   5
 UBDSV3 SAVING "  STORAGE CHANGE" ON UNIT  61 AT TIME STEP 10, STRESS PERIOD   5


UNSATURATED ZONE PACKAGE VOLUMETRIC BUDGET FOR  TIME STEP    10 STRESS PERIOD    5
  ------------------------------------------------------------------------------



     CUMULATIVE VOLUMES      L**3       RATES FOR THIS TIME STEP      L**3/T
     ------------------                 ------------------------

           IN:                                      IN:
           ---                                      ---
        INFILTRATION =    10764265.6005          INFILTRATION =           4.5675

          OUT:                                     OUT:
          ----                                     ----
              UZF ET =    10690364.5279                UZF ET =           4.5675
        UZF RECHARGE =       73224.0000          UZF RECHARGE =       0.0000E+00

            IN - OUT =         677.0726              IN - OUT =       0.0000E+00

          STORAGE:                                 STORAGE:
          --------                                 --------
      STORAGE CHANGE =         677.1349        STORAGE CHANGE =       8.3954E-15

 PERCENT DISCREPANCY IS DIFFERENCE BETWEEN IN-OUT MINUS CHANGE IN STORAGE
 DIVIDED BY THE AVERAGE OF IN AND OUT TIMES 100

 PERCENT DISCREPANCY =           0.00     PERCENT DISCREPANCY =           0.00






 

            AG WELLS      PERIOD    5   STEP  10
 AG WELL      1   LAYER   1   ROW     6   COL     4   RATE   -0.620000    
 AG WELL      2   LAYER   1   ROW     6   COL     5   RATE   -0.620000    
 AG WELL      3   LAYER   1   ROW     7   COL     4   RATE   -0.620000    
 AG WELL      4   LAYER   1   ROW     7   COL     5   RATE   -0.620000    
 AG WELL      5   LAYER   1   ROW     8   COL     4   RATE   -0.620000    
 AG WELL      6   LAYER   1   ROW     8   COL     5   RATE   -0.620000    
 
 

        GW IRRIGATION     PERIOD    5   STEP  10
 AG WELL      1   ROW     6   COL     4   RATE    0.620000    
 AG WELL      2   ROW     6   COL     5   RATE    0.620000    
 AG WELL      3   ROW     7   COL     4   RATE    0.620000    
 AG WELL      4   ROW     7   COL     5   RATE    0.620000    
 AG WELL      5   ROW     8   COL     4   RATE    0.620000    
 AG WELL      6   ROW     8   COL     5   RATE    0.620000    
 
1
  VOLUMETRIC BUDGET FOR AGRICULTURAL FIELDS AT  END OF TIME STEP   10, STRESS PERIOD   5
  ------------------------------------------------------------------------------

     CUMULATIVE VOLUMES      L**3       RATES FOR THIS TIME STEP      L**3/T
     ------------------                 ------------------------

           IN:                                      IN:
           ---                                      ---
               AG WELLS  =     3261292.0000                 AG WELLS  =           3.7200
      DIVERSION SEGMENTS =           0.0000        DIVERSION SEGMENTS =           0.0000
           GW IRRIGATION =           0.0000             GW IRRIGATION =           0.0000
           SW IRRIGATION =           0.0000             SW IRRIGATION =           0.0000
        SYSTEM LOSSES GW =           0.0000          SYSTEM LOSSES GW =           0.0000
        SYSTEM LOSSES SW =           0.0000          SYSTEM LOSSES SW =           0.0000

                TOTAL IN =     3261292.0000                  TOTAL IN =           3.7200

          OUT:                                     OUT:
          ----                                     ----
               AG WELLS  =           0.0000                 AG WELLS  =           0.0000
      DIVERSION SEGMENTS =           0.0000        DIVERSION SEGMENTS =           0.0000
           GW IRRIGATION =     3261292.0000             GW IRRIGATION =           3.7200
           SW IRRIGATION =           0.0000             SW IRRIGATION =           0.0000
        SYSTEM LOSSES GW =           0.0000          SYSTEM LOSSES GW =           0.0000
        SYSTEM LOSSES SW =           0.0000          SYSTEM LOSSES SW =           0.0000

               TOTAL OUT =     3261292.0000                 TOTAL OUT =           3.7200

                IN - OUT =           0.0000                  IN - OUT =           0.0000

     PERCENT DISCREPANCY =           0.00         PERCENT DISCREPANCY =           0.00



1
  VOLUMETRIC BUDGET FOR ENTIRE MODEL AT END OF TIME STEP   10, STRESS PERIOD   5
  ------------------------------------------------------------------------------

     CUMULATIVE VOLUMES      L**3       RATES FOR THIS TIME STEP      L**3/T
     ------------------                 ------------------------

           IN:                                      IN:
           ---                                      ---
             STORAGE     =     9828772.0000               STORAGE     =           5.5209
       CONSTANT HEAD     =           0.0000         CONSTANT HEAD     =           0.0000
     HEAD DEP BOUNDS     =     2526887.0000       HEAD DEP BOUNDS     =           0.2855
      STREAM LEAKAGE     =   109152240.0000        STREAM LEAKAGE     =          11.6137
        UZF RECHARGE     =       73223.9531          UZF RECHARGE     =           0.0000
               GW ET     =           0.0000                 GW ET     =           0.0000
     SURFACE LEAKAGE     =           0.0000       SURFACE LEAKAGE     =           0.0000
           AG WELLS      =           0.0000             AG WELLS      =           0.0000

                TOTAL IN =   121581120.0000                  TOTAL IN =          17.4201

          OUT:                                     OUT:
          ----                                     ----
             STORAGE     =    23501786.0000               STORAGE     =           1.1336
       CONSTANT HEAD     =           0.0000         CONSTANT HEAD     =           0.0000
     HEAD DEP BOUNDS     =     2587272.2500       HEAD DEP BOUNDS     =           0.2951
      STREAM LEAKAGE     =    92050576.0000        STREAM LEAKAGE     =          12.1647
        UZF RECHARGE     =           0.0000          UZF RECHARGE     =           0.0000
               GW ET     =      184366.9688                 GW ET     =           0.1054
     SURFACE LEAKAGE     =           0.0000       SURFACE LEAKAGE     =           0.0000
           AG WELLS      =     3261292.0000             AG WELLS      =           3.7200

               TOTAL OUT =   121585296.0000                 TOTAL OUT =          17.4188

                IN - OUT =       -4176.0000                  IN - OUT =       1.2646E-03

     PERCENT DISCREPANCY =          -0.00         PERCENT DISCREPANCY =           0.01






         TIME SUMMARY AT END OF TIME STEP   10 IN STRESS PERIOD    5
                    SECONDS     MINUTES      HOURS       DAYS        YEARS
                    -----------------------------------------------------------
   TIME STEP LENGTH  87667.      1461.1      24.352      1.0147     2.77799E-03
 STRESS PERIOD TIME 8.76667E+05  14611.      243.52      10.147     2.77799E-02
         TOTAL TIME 8.85306E+06 1.47551E+05  2459.2      102.47     0.28054    
1
 
 SOLVING FOR HEAD 
                                                   Max.-Head-Change                         Max.-Flux-Residual
  Residual-Control   Outer-Iter.   Inner-Iter.     Column Row Layer    Maximum-Head-Change  Column Row Layer    Maximum-Flux-Residual          L2-NORM 
          0                 1           2             4    7     1      -0.1087771140E-01       4    7    1        -0.5701062612E+00      0.1466582636E+01
          0                 2           2             4    7     1       0.1058103022E-02       4    7    1         0.5701051726E-01      0.1457819533E+00
          0                 3           1             4    7     1      -0.7205291025E-04       4    7    1        -0.3990738972E-02      0.1012374861E-01

    ------------------------------------------------
       NWT REQUIRED            3 OUTER ITERATIONS 
       AND A TOTAL OF          5 INNER ITERATIONS.
    ------------------------------------------------

 NO OUTPUT CONTROL FOR STRESS PERIOD    5   TIME STEP   11
 
 SOLVING FOR HEAD 
                                                   Max.-Head-Change                         Max.-Flux-Residual
  Residual-Control   Outer-Iter.   Inner-Iter.     Column Row Layer    Maximum-Head-Change  Column Row Layer    Maximum-Flux-Residual          L2-NORM 
          0                 1           2             4    7     1      -0.1078163769E-01       4    7    1        -0.5652013439E+00      0.1423931819E+01
          0                 2           2             4    7     1       0.1048757642E-02       4    7    1         0.5652002352E-01      0.1416365199E+00
          0                 3           1             4    7     1      -0.7141652469E-04       4    7    1        -0.3956404389E-02      0.9844953978E-02

    ------------------------------------------------
       NWT REQUIRED            3 OUTER ITERATIONS 
       AND A TOTAL OF          5 INNER ITERATIONS.
    ------------------------------------------------

 NO OUTPUT CONTROL FOR STRESS PERIOD    5   TIME STEP   12
 
 SOLVING FOR HEAD 
                                                   Max.-Head-Change                         Max.-Flux-Residual
  Residual-Control   Outer-Iter.   Inner-Iter.     Column Row Layer    Maximum-Head-Change  Column Row Layer    Maximum-Flux-Residual          L2-NORM 
          0                 1           2             4    7     1      -0.1068433479E-01       4    7    1        -0.5602199411E+00      0.1385628888E+01
          0                 2           2             4    7     1       0.1039292703E-02       4    7    1         0.5602188165E-01      0.1379104349E+00
          0                 3           1             4    7     1      -0.7077199805E-04       4    7    1        -0.3921534484E-02      0.9593671063E-02

    ------------------------------------------------
       NWT REQUIRED            3 OUTER ITERATIONS 
       AND A TOTAL OF          5 INNER ITERATIONS.
    ------------------------------------------------

 NO OUTPUT CONTROL FOR STRESS PERIOD    5   TIME STEP   13
 
 SOLVING FOR HEAD 
                                                   Max.-Head-Change                         Max.-Flux-Residual
  Residual-Control   Outer-Iter.   Inner-Iter.     Column Row Layer    Maximum-Head-Change  Column Row Layer    Maximum-Flux-Residual          L2-NORM 
          0                 1           2             4    7     1      -0.1058548513E-01       4    7    1        -0.5551451496E+00      0.1351062502E+01
          0                 2           2             4    7     1       0.1029677311E-02       4    7    1         0.5551440130E-01      0.1345429755E+00
          0                 3           1             4    7     1      -0.7011722559E-04       4    7    1        -0.3886010841E-02      0.9366401763E-02

    ------------------------------------------------
       NWT REQUIRED            3 OUTER ITERATIONS 
       AND A TOTAL OF          5 INNER ITERATIONS.
    ------------------------------------------------

 NO OUTPUT CONTROL FOR STRESS PERIOD    5   TIME STEP   14
 
 SOLVING FOR HEAD 
                                                   Max.-Head-Change                         Max.-Flux-Residual
  Residual-Control   Outer-Iter.   Inner-Iter.     Column Row Layer    Maximum-Head-Change  Column Row Layer    Maximum-Flux-Residual          L2-NORM 
          0                 1           2             4    7     1      -0.1048586340E-01       4    7    1        -0.5500198238E+00      0.1319740019E+01
          0                 2           2             4    7     1       0.1019986823E-02       4    7    1         0.5500186787E-01      0.1314884971E+00
          0                 3           1             4    7     1      -0.6945733933E-04       4    7    1        -0.3850133487E-02      0.9159213745E-02

    ------------------------------------------------
       NWT REQUIRED            3 OUTER ITERATIONS 
       AND A TOTAL OF          5 INNER ITERATIONS.
    ------------------------------------------------

 NO OUTPUT CONTROL FOR STRESS PERIOD    5   TIME STEP   15
 
 SOLVING FOR HEAD 
                                                   Max.-Head-Change                         Max.-Flux-Residual
  Residual-Control   Outer-Iter.   Inner-Iter.     Column Row Layer    Maximum-Head-Change  Column Row Layer    Maximum-Flux-Residual          L2-NORM 
          0                 1           2             4    7     1      -0.1038538161E-01       4    7    1        -0.5448396403E+00      0.1291213009E+01
          0                 2           2             4    7     1       0.1010212680E-02       4    7    1         0.5448384896E-01      0.1287026101E+00
          0                 3           1             4    7     1      -0.6879175705E-04       4    7    1        -0.3813872170E-02      0.8970579516E-02

    ------------------------------------------------
       NWT REQUIRED            3 OUTER ITERATIONS 
       AND A TOTAL OF          5 INNER ITERATIONS.
    ------------------------------------------------

 NO OUTPUT CONTROL FOR STRESS PERIOD    5   TIME STEP   16
 
 SOLVING FOR HEAD 
                                                   Max.-Head-Change                         Max.-Flux-Residual
  Residual-Control   Outer-Iter.   Inner-Iter.     Column Row Layer    Maximum-Head-Change  Column Row Layer    Maximum-Flux-Residual          L2-NORM 
          0                 1           2             4    7     1      -0.1028451050E-01       4    7    1        -0.5396296965E+00      0.1265129893E+01
          0                 2           2             4    7     1       0.1000400669E-02       4    7    1         0.5396285430E-01      0.1261523758E+00
          0                 3           1             4    7     1      -0.6812359527E-04       4    7    1        -0.3777402515E-02      0.8797176520E-02

    ------------------------------------------------
       NWT REQUIRED            3 OUTER ITERATIONS 
       AND A TOTAL OF          5 INNER ITERATIONS.
    ------------------------------------------------

 NO OUTPUT CONTROL FOR STRESS PERIOD    5   TIME STEP   17
 
 SOLVING FOR HEAD 
                                                   Max.-Head-Change                         Max.-Flux-Residual
  Residual-Control   Outer-Iter.   Inner-Iter.     Column Row Layer    Maximum-Head-Change  Column Row Layer    Maximum-Flux-Residual          L2-NORM 
          0                 1           2             4    7     1      -0.1018285529E-01       4    7    1        -0.5343699111E+00      0.1241145550E+01
          0                 2           2             4    7     1       0.9905123912E-03       4    7    1         0.5343687578E-01      0.1238035179E+00
          0                 3           1             4    7     1      -0.6745024040E-04       4    7    1        -0.3740584017E-02      0.8637543901E-02

    ------------------------------------------------
       NWT REQUIRED            3 OUTER ITERATIONS 
       AND A TOTAL OF          5 INNER ITERATIONS.
    ------------------------------------------------

 NO OUTPUT CONTROL FOR STRESS PERIOD    5   TIME STEP   18
 
 SOLVING FOR HEAD 
                                                   Max.-Head-Change                         Max.-Flux-Residual
  Residual-Control   Outer-Iter.   Inner-Iter.     Column Row Layer    Maximum-Head-Change  Column Row Layer    Maximum-Flux-Residual          L2-NORM 
          0                 1           2             4    7     1      -0.1008114999E-01       4    7    1        -0.5290991320E+00      0.1219023913E+01
          0                 2           2             4    7     1       0.9806192447E-03       4    7    1         0.5290979810E-01      0.1216342477E+00
          0                 3           1             4    7     1      -0.6677655396E-04       4    7    1        -0.3703688571E-02      0.8489362573E-02

    ------------------------------------------------
       NWT REQUIRED            3 OUTER ITERATIONS 
       AND A TOTAL OF          5 INNER ITERATIONS.
    ------------------------------------------------

 NO OUTPUT CONTROL FOR STRESS PERIOD    5   TIME STEP   19
 
 SOLVING FOR HEAD 
                                                   Max.-Head-Change                         Max.-Flux-Residual
  Residual-Control   Outer-Iter.   Inner-Iter.     Column Row Layer    Maximum-Head-Change  Column Row Layer    Maximum-Flux-Residual          L2-NORM 
          0                 1           2             4    7     1      -0.9979243423E-02       4    7    1        -0.5238109303E+00      0.1198497487E+01
          0                 2           2             4    7     1       0.9707065220E-03       4    7    1         0.5238097833E-01      0.1196182121E+00
          0                 3           1             4    7     1      -0.6610153433E-04       4    7    1        -0.3666671164E-02      0.8351872305E-02

    ------------------------------------------------
       NWT REQUIRED            3 OUTER ITERATIONS 
       AND A TOTAL OF          5 INNER ITERATIONS.
    ------------------------------------------------

 NO OUTPUT CONTROL FOR STRESS PERIOD    5   TIME STEP   20
 
 SOLVING FOR HEAD 
                                                   Max.-Head-Change                         Max.-Flux-Residual
  Residual-Control   Outer-Iter.   Inner-Iter.     Column Row Layer    Maximum-Head-Change  Column Row Layer    Maximum-Flux-Residual          L2-NORM 
          0                 1           2             4    7     1      -0.9877283402E-02       4    7    1        -0.5185122956E+00      0.1179390007E+01
          0                 2           2             4    7     1       0.9607886030E-03       4    7    1         0.5185111547E-01      0.1177232943E+00
          0                 3           1             4    7     1      -0.6542616041E-04       4    7    1        -0.3629580712E-02      0.8226669920E-02

    ------------------------------------------------
       NWT REQUIRED            3 OUTER ITERATIONS 
       AND A TOTAL OF          5 INNER ITERATIONS.
    ------------------------------------------------

 NO OUTPUT CONTROL FOR STRESS PERIOD    5   TIME STEP   21
 
 SOLVING FOR HEAD 
                                                   Max.-Head-Change                         Max.-Flux-Residual
  Residual-Control   Outer-Iter.   Inner-Iter.     Column Row Layer    Maximum-Head-Change  Column Row Layer    Maximum-Flux-Residual          L2-NORM 
          0                 1           2             4    7     1      -0.9775663721E-02       4    7    1        -0.5132257198E+00      0.1161531521E+01
          0                 2           2             4    7     1       0.9509037920E-03       4    7    1         0.5132245866E-01      0.1158245333E+00
          0                 3           1             4    7     1      -0.6475304127E-04       4    7    1        -0.3592574719E-02      0.8092671131E-02

    ------------------------------------------------
       NWT REQUIRED            3 OUTER ITERATIONS 
       AND A TOTAL OF          5 INNER ITERATIONS.
    ------------------------------------------------

 NO OUTPUT CONTROL FOR STRESS PERIOD    5   TIME STEP   22
 
 SOLVING FOR HEAD 
                                                   Max.-Head-Change                         Max.-Flux-Residual
  Residual-Control   Outer-Iter.   Inner-Iter.     Column Row Layer    Maximum-Head-Change  Column Row Layer    Maximum-Flux-Residual          L2-NORM 
          0                 1           2             4    7     1      -0.9674215520E-02       4    7    1        -0.5079419648E+00      0.1144899586E+01
          0                 2           2             4    7     1       0.9410356635E-03       4    7    1         0.5079408408E-01      0.1143387503E+00
          0                 3           1             4    7     1      -0.6408105816E-04       4    7    1        -0.3555588467E-02      0.7989580927E-02

    ------------------------------------------------
       NWT REQUIRED            3 OUTER ITERATIONS 
       AND A TOTAL OF          5 INNER ITERATIONS.
    ------------------------------------------------

 NO OUTPUT CONTROL FOR STRESS PERIOD    5   TIME STEP   23
 
 SOLVING FOR HEAD 
                                                   Max.-Head-Change                         Max.-Flux-Residual
  Residual-Control   Outer-Iter.   Inner-Iter.     Column Row Layer    Maximum-Head-Change  Column Row Layer    Maximum-Flux-Residual          L2-NORM 
          0                 1           2             4    7     1      -0.9573042298E-02       4    7    1        -0.5026671035E+00      0.1129199232E+01
          0                 2           2             4    7     1       0.9311976675E-03       4    7    1         0.5026659899E-01      0.1127867930E+00
          0                 3           1             4    7     1      -0.6341441772E-04       4    7    1        -0.3518664510E-02      0.7888110269E-02

    ------------------------------------------------
       NWT REQUIRED            3 OUTER ITERATIONS 
       AND A TOTAL OF          5 INNER ITERATIONS.
    ------------------------------------------------

 NO OUTPUT CONTROL FOR STRESS PERIOD    5   TIME STEP   24
 
 SOLVING FOR HEAD 
                                                   Max.-Head-Change                         Max.-Flux-Residual
  Residual-Control   Outer-Iter.   Inner-Iter.     Column Row Layer    Maximum-Head-Change  Column Row Layer    Maximum-Flux-Residual          L2-NORM 
          0                 1           2             4    7     1      -0.9472245444E-02       4    7    1        -0.4974065098E+00      0.1114342113E+01
          0                 2           2             4    7     1       0.9213459046E-03       4    7    1         0.4974054077E-01      0.1112545157E+00
          0                 3           1             4    7     1      -0.6274025840E-04       4    7    1        -0.3481840404E-02      0.7777044599E-02

    ------------------------------------------------
       NWT REQUIRED            3 OUTER ITERATIONS 
       AND A TOTAL OF          5 INNER ITERATIONS.
    ------------------------------------------------

 NO OUTPUT CONTROL FOR STRESS PERIOD    5   TIME STEP   25
 
 SOLVING FOR HEAD 
                                                   Max.-Head-Change                         Max.-Flux-Residual
  Residual-Control   Outer-Iter.   Inner-Iter.     Column Row Layer    Maximum-Head-Change  Column Row Layer    Maximum-Flux-Residual          L2-NORM 
          0                 1           2             4    7     1      -0.9372317973E-02       4    7    1        -0.4921825614E+00      0.1100298453E+01
          0                 2           2             4    7     1       0.9116693264E-03       4    7    1         0.4921814731E-01      0.1099302918E+00
          0                 3           1             4    7     1      -0.6208131907E-04       4    7    1        -0.3445272818E-02      0.7686110366E-02

    ------------------------------------------------
       NWT REQUIRED            3 OUTER ITERATIONS 
       AND A TOTAL OF          5 INNER ITERATIONS.
    ------------------------------------------------

 NO OUTPUT CONTROL FOR STRESS PERIOD    5   TIME STEP   26
 
 SOLVING FOR HEAD 
                                                   Max.-Head-Change                         Max.-Flux-Residual
  Residual-Control   Outer-Iter.   Inner-Iter.     Column Row Layer    Maximum-Head-Change  Column Row Layer    Maximum-Flux-Residual          L2-NORM 
          0                 1           2             4    7     1      -0.9272912622E-02       4    7    1        -0.4869842377E+00      0.1086932924E+01
          0                 2           2             4    7     1       0.9019999177E-03       4    7    1         0.4869831632E-01      0.1086063594E+00
          0                 3           1             4    7     1      -0.6142286799E-04       4    7    1        -0.3408884628E-02      0.7594558895E-02

    ------------------------------------------------
       NWT REQUIRED            3 OUTER ITERATIONS 
       AND A TOTAL OF          5 INNER ITERATIONS.
    ------------------------------------------------

 NO OUTPUT CONTROL FOR STRESS PERIOD    5   TIME STEP   27
 
 SOLVING FOR HEAD 
                                                   Max.-Head-Change                         Max.-Flux-Residual
  Residual-Control   Outer-Iter.   Inner-Iter.     Column Row Layer    Maximum-Head-Change  Column Row Layer    Maximum-Flux-Residual          L2-NORM 
          0                 1           2             4    7     1      -0.9174139229E-02       4    7    1        -0.4818153052E+00      0.1074168627E+01
          0                 2           2             4    7     1       0.8923919827E-03       4    7    1         0.4818142453E-01      0.1073409302E+00
          0                 3           1             4    7     1      -0.6076860343E-04       4    7    1        -0.3372702185E-02      0.7506937690E-02

    ------------------------------------------------
       NWT REQUIRED            3 OUTER ITERATIONS 
       AND A TOTAL OF          5 INNER ITERATIONS.
    ------------------------------------------------

 NO OUTPUT CONTROL FOR STRESS PERIOD    5   TIME STEP   28
 
 SOLVING FOR HEAD 
                                                   Max.-Head-Change                         Max.-Flux-Residual
  Residual-Control   Outer-Iter.   Inner-Iter.     Column Row Layer    Maximum-Head-Change  Column Row Layer    Maximum-Flux-Residual          L2-NORM 
          0                 1           2             4    7     1      -0.9075968505E-02       4    7    1        -0.4766791410E+00      0.1146330724E+01
          0                 2           2             4    7     1       0.8828426711E-03       4    7    1         0.4766780956E-01      0.1142274125E+00
          0                 3           1             4    7     1      -0.6011832989E-04       4    7    1        -0.3336749105E-02      0.7959569785E-02

    ------------------------------------------------
       NWT REQUIRED            3 OUTER ITERATIONS 
       AND A TOTAL OF          5 INNER ITERATIONS.
    ------------------------------------------------

 NO OUTPUT CONTROL FOR STRESS PERIOD    5   TIME STEP   29
 
 SOLVING FOR HEAD 
                                                   Max.-Head-Change                         Max.-Flux-Residual
  Residual-Control   Outer-Iter.   Inner-Iter.     Column Row Layer    Maximum-Head-Change  Column Row Layer    Maximum-Flux-Residual          L2-NORM 
          0                 1           2             4   13     1       0.2591957795E-01       4   13    1         0.1501293703E+01      0.2844525050E+01
          0                 2           2             4   13     1      -0.2882546179E-02       4   13    1        -0.1752362714E+00      0.2921552599E+00
          0                 3           2             4   13     1       0.1933606815E-03       4   13    1         0.1208621158E-01      0.1971914056E-01
          0                 4           1             4   13     1      -0.7502028738E-05       4   13    1        -0.4821829534E-03      0.7601357926E-03

    ------------------------------------------------
       NWT REQUIRED            4 OUTER ITERATIONS 
       AND A TOTAL OF          7 INNER ITERATIONS.
    ------------------------------------------------

 NO OUTPUT CONTROL FOR STRESS PERIOD    5   TIME STEP   30



 STREAM LISTING     PERIOD      5   STEP       30

 LAYER ROW COL. STREAM  RCH.  FLOW INTO     FLOW TO   FLOW OUT OF   OVRLND.     DIRECT     STREAM       STREAM     STREAM     STREAM   STREAMBED  STREAMBED
                SEG.NO.  NO.  STRM. RCH.    AQUIFER    STRM. RCH.    RUNOFF     PRECIP       ET          HEAD       DEPTH      WIDTH   CONDCTNC.   GRADIENT

   1    1    1     1     1    9.9000E+01  4.7281E-01   9.8528E+01  0.000E+00  0.000E+00  0.000E+00  1.09484E+03  1.796E+00  2.191E+01  9.859E-02  1.599E+00
   1    2    2     1     2    9.8528E+01  7.3365E-01   9.7794E+01  0.000E+00  0.000E+00  0.000E+00  1.08985E+03  1.793E+00  2.187E+01  1.531E-01  1.598E+00
   1    3    3     1     3    9.7794E+01  6.2707E-01   9.7167E+01  0.000E+00  0.000E+00  0.000E+00  1.08421E+03  1.791E+00  2.181E+01  1.309E-01  1.597E+00
   1    3    4     1     4    9.7167E+01  5.7859E-01   9.6588E+01  0.000E+00  0.000E+00  0.000E+00  1.07920E+03  1.789E+00  2.177E+01  1.208E-01  1.596E+00
   1    4    5     2     1    9.4588E+01  4.4299E-01   9.4145E+01  0.000E+00  0.000E+00  0.000E+00  1.07461E+03  2.679E+00  1.200E+01  7.800E-02  1.893E+00
   1    5    6     2     2    9.4145E+01  3.4036E-01   9.3805E+01  0.000E+00  0.000E+00  0.000E+00  1.06918E+03  2.673E+00  1.200E+01  6.000E-02  1.891E+00
   1    6    6     2     3    9.3805E+01  3.4001E-01   9.3465E+01  0.000E+00  0.000E+00  0.000E+00  1.06446E+03  2.667E+00  1.200E+01  6.000E-02  1.889E+00
   1    7    6     2     4    9.3465E+01  3.3967E-01   9.3125E+01  0.000E+00  0.000E+00  0.000E+00  1.05974E+03  2.661E+00  1.200E+01  6.000E-02  1.887E+00
   1    8    6     2     5    9.3125E+01  3.3932E-01   9.2786E+01  0.000E+00  0.000E+00  0.000E+00  1.05501E+03  2.655E+00  1.200E+01  6.000E-02  1.885E+00
   1    3    5     3     1    2.0000E+00  2.8252E-01   1.7175E+00  0.000E+00  0.000E+00  0.000E+00  1.07555E+03  1.909E+00  9.636E+00  7.227E-02  1.955E+00
   1    3    6     3     2    1.7175E+00  2.4905E-01   1.4684E+00  0.000E+00  0.000E+00  0.000E+00  1.07264E+03  1.727E+00  8.909E+00  6.682E-02  1.864E+00
   1    3    7     3     3    1.4684E+00  1.9718E-01   1.2712E+00  0.000E+00  0.000E+00  0.000E+00  1.06987E+03  1.555E+00  8.218E+00  5.547E-02  1.777E+00
   1    4    8     3     4    1.2712E+00  2.2567E-01   1.0456E+00  0.000E+00  0.000E+00  0.000E+00  1.06682E+03  1.364E+00  7.455E+00  6.709E-02  1.682E+00
   1    5    8     3     5    1.0456E+00  1.5790E-01   8.8768E-01  0.000E+00  0.000E+00  0.000E+00  1.06362E+03  1.164E+00  6.655E+00  4.991E-02  1.582E+00
   1    6    8     3     6    8.8768E-01  5.5980E-02   8.3170E-01  0.000E+00  0.000E+00  0.000E+00  1.06158E+03  1.036E+00  6.145E+00  1.844E-02  1.518E+00
   1    5   10     4     1    1.0000E+01  9.0919E-02   9.9091E+00  0.000E+00  0.000E+00  0.000E+00  1.07836E+03  6.368E-01  1.000E+01  2.500E-02  1.212E+00
   1    5    9     4     2    9.9091E+00  1.8158E-01   9.7275E+00  0.000E+00  0.000E+00  0.000E+00  1.07154E+03  6.315E-01  1.000E+01  5.000E-02  1.211E+00
   1    6    8     4     3    9.7275E+00  1.2689E-01   9.6006E+00  0.000E+00  0.000E+00  0.000E+00  1.06381E+03  6.256E-01  1.000E+01  3.500E-02  1.209E+00
   1    6    8     5     1    1.0432E+01  2.2686E-01   1.0205E+01  0.000E+00  0.000E+00  0.000E+00  1.05868E+03  6.790E-01  1.542E+01  6.166E-02  1.226E+00
   1    7    7     5     2    1.0205E+01  2.7894E-01   9.9265E+00  0.000E+00  0.000E+00  0.000E+00  1.05417E+03  6.732E-01  1.519E+01  7.594E-02  1.224E+00
   1    8    7     5     3    9.9265E+00  1.9221E-01   9.7343E+00  0.000E+00  0.000E+00  0.000E+00  1.04992E+03  6.676E-01  1.497E+01  5.241E-02  1.223E+00
   1    8    6     5     4    9.7343E+00  1.3577E-01   9.5985E+00  0.000E+00  0.000E+00  0.000E+00  1.04691E+03  6.637E-01  1.482E+01  3.706E-02  1.221E+00
   1    9    6     6     1    1.0238E+02  3.5054E-01   1.0203E+02  0.000E+00  0.000E+00  0.000E+00  1.04557E+03  2.842E+00  1.200E+01  6.000E-02  1.947E+00
   1   10    7     6     2    1.0203E+02  3.5018E-01   1.0168E+02  0.000E+00  0.000E+00  0.000E+00  1.04102E+03  2.836E+00  1.200E+01  6.000E-02  1.945E+00
   1   11    7     6     3    1.0168E+02  3.4983E-01   1.0133E+02  0.000E+00  0.000E+00  0.000E+00  1.03647E+03  2.831E+00  1.200E+01  6.000E-02  1.944E+00
   1   12    7     6     4    1.0133E+02  3.4948E-01   1.0098E+02  0.000E+00  0.000E+00  0.000E+00  1.03192E+03  2.825E+00  1.200E+01  6.000E-02  1.942E+00
   1   13    7     6     5    1.0098E+02  3.7134E-02   1.0095E+02  0.000E+00  0.000E+00  0.000E+00  1.02873E+03  2.821E+00  1.200E+01  2.400E-02  5.158E-01
   1   14    9     7     1    1.5000E+02  1.3318E+00   1.4867E+02  0.000E+00  0.000E+00  0.000E+00  1.03987E+03  2.288E+00  5.529E+01  5.593E-01  7.937E-01
   1   13    8     7     2    1.4867E+02  1.8109E+00   1.4686E+02  0.000E+00  0.000E+00  0.000E+00  1.03478E+03  2.279E+00  5.526E+01  6.148E-01  9.819E-01
   1   13    7     7     3    1.4686E+02  1.4000E+00   1.4546E+02  0.000E+00  0.000E+00  0.000E+00  1.02969E+03  2.271E+00  5.522E+01  5.585E-01  8.356E-01
   1   13    6     8     1    2.4640E+02  1.1761E+00   2.4523E+02  0.000E+00  0.000E+00  0.000E+00  1.02527E+03  3.390E+00  4.916E+01  5.009E-01  7.827E-01
   1   13    5     8     2    2.4523E+02  3.1457E-01   2.4491E+02  0.000E+00  0.000E+00  0.000E+00  1.01901E+03  3.386E+00  4.910E+01  5.003E-01  2.096E-01
   1   13    4     8     3    2.4491E+02 -1.2778E+00   2.4619E+02  0.000E+00  0.000E+00  0.000E+00  1.01276E+03  3.389E+00  4.914E+01  5.007E+00 -8.506E-02
   1   13    3     8     4    2.4619E+02 -2.5237E+00   2.4872E+02  0.000E+00  0.000E+00  0.000E+00  1.00652E+03  3.399E+00  4.928E+01  5.022E+00 -1.675E-01
   1   13    2     8     5    2.4872E+02 -1.3006E+00   2.5002E+02  0.000E+00  0.000E+00  0.000E+00  1.00028E+03  3.408E+00  4.942E+01  5.036E+00 -8.609E-02
   1   13    1     8     6    2.5002E+02 -1.2936E+00   2.5131E+02  0.000E+00  0.000E+00  0.000E+00  9.95290E+02  3.415E+00  4.952E+01  3.028E+00 -1.424E-01





UNSATURATED ZONE PACKAGE VOLUMETRIC BUDGET FOR  TIME STEP    30 STRESS PERIOD    5
  ------------------------------------------------------------------------------



     CUMULATIVE VOLUMES      L**3       RATES FOR THIS TIME STEP      L**3/T
     ------------------                 ------------------------

           IN:                                      IN:
           ---                                      ---
        INFILTRATION =    18772615.2056          INFILTRATION =           4.5675

          OUT:                                     OUT:
          ----                                     ----
              UZF ET =    18698714.1330                UZF ET =           4.5675
        UZF RECHARGE =       73224.0000          UZF RECHARGE =       0.0000E+00

            IN - OUT =         677.0726              IN - OUT =       0.0000E+00

          STORAGE:                                 STORAGE:
          --------                                 --------
      STORAGE CHANGE =         677.1349        STORAGE CHANGE =       8.3962E-15

 PERCENT DISCREPANCY IS DIFFERENCE BETWEEN IN-OUT MINUS CHANGE IN STORAGE
 DIVIDED BY THE AVERAGE OF IN AND OUT TIMES 100

 PERCENT DISCREPANCY =           0.00     PERCENT DISCREPANCY =           0.00






1
  VOLUMETRIC BUDGET FOR AGRICULTURAL FIELDS AT  END OF TIME STEP   30, STRESS PERIOD   5
  ------------------------------------------------------------------------------

     CUMULATIVE VOLUMES      L**3       RATES FOR THIS TIME STEP      L**3/T
     ------------------                 ------------------------

           IN:                                      IN:
           ---                                      ---
               AG WELLS  =     9783692.0000                 AG WELLS  =           3.7200
      DIVERSION SEGMENTS =           0.0000        DIVERSION SEGMENTS =           0.0000
           GW IRRIGATION =           0.0000             GW IRRIGATION =           0.0000
           SW IRRIGATION =           0.0000             SW IRRIGATION =           0.0000
        SYSTEM LOSSES GW =           0.0000          SYSTEM LOSSES GW =           0.0000
        SYSTEM LOSSES SW =           0.0000          SYSTEM LOSSES SW =           0.0000

                TOTAL IN =     9783692.0000                  TOTAL IN =           3.7200

          OUT:                                     OUT:
          ----                                     ----
               AG WELLS  =           0.0000                 AG WELLS  =           0.0000
      DIVERSION SEGMENTS =           0.0000        DIVERSION SEGMENTS =           0.0000
           GW IRRIGATION =     9783692.0000             GW IRRIGATION =           3.7200
           SW IRRIGATION =           0.0000             SW IRRIGATION =           0.0000
        SYSTEM LOSSES GW =           0.0000          SYSTEM LOSSES GW =           0.0000
        SYSTEM LOSSES SW =           0.0000          SYSTEM LOSSES SW =           0.0000

               TOTAL OUT =     9783692.0000                 TOTAL OUT =           3.7200

                IN - OUT =           0.0000                  IN - OUT =           0.0000

     PERCENT DISCREPANCY =           0.00         PERCENT DISCREPANCY =           0.00



1
  VOLUMETRIC BUDGET FOR ENTIRE MODEL AT END OF TIME STEP   30, STRESS PERIOD   5
  ------------------------------------------------------------------------------

     CUMULATIVE VOLUMES      L**3       RATES FOR THIS TIME STEP      L**3/T
     ------------------                 ------------------------

           IN:                                      IN:
           ---                                      ---
             STORAGE     =    17889416.0000               STORAGE     =           3.4383
       CONSTANT HEAD     =           0.0000         CONSTANT HEAD     =           0.0000
     HEAD DEP BOUNDS     =     3027432.2500       HEAD DEP BOUNDS     =           0.2855
      STREAM LEAKAGE     =   129797984.0000        STREAM LEAKAGE     =          14.0865
        UZF RECHARGE     =       73223.9531          UZF RECHARGE     =           0.0000
               GW ET     =           0.0000                 GW ET     =           0.0000
     SURFACE LEAKAGE     =           0.0000       SURFACE LEAKAGE     =           0.0000
           AG WELLS      =           0.0000             AG WELLS      =           0.0000

                TOTAL IN =   150788048.0000                  TOTAL IN =          17.8103

          OUT:                                     OUT:
          ----                                     ----
             STORAGE     =    25818230.0000               STORAGE     =           7.3456
       CONSTANT HEAD     =           0.0000         CONSTANT HEAD     =           0.0000
     HEAD DEP BOUNDS     =     3102142.0000       HEAD DEP BOUNDS     =           0.2933
      STREAM LEAKAGE     =   111847504.0000        STREAM LEAKAGE     =           6.3956
        UZF RECHARGE     =           0.0000          UZF RECHARGE     =           0.0000
               GW ET     =      238934.1875                 GW ET     =       5.5732E-02
     SURFACE LEAKAGE     =           0.0000       SURFACE LEAKAGE     =           0.0000
           AG WELLS      =     9783692.0000             AG WELLS      =           3.7200

               TOTAL OUT =   150790496.0000                 TOTAL OUT =          17.8102

                IN - OUT =       -2448.0000                  IN - OUT =       1.9073E-05

     PERCENT DISCREPANCY =          -0.00         PERCENT DISCREPANCY =           0.00






         TIME SUMMARY AT END OF TIME STEP   30 IN STRESS PERIOD    5
                    SECONDS     MINUTES      HOURS       DAYS        YEARS
                    -----------------------------------------------------------
   TIME STEP LENGTH  87667.      1461.1      24.352      1.0147     2.77799E-03
 STRESS PERIOD TIME 2.63000E+06  43833.      730.56      30.440     8.33397E-02
         TOTAL TIME 1.06064E+07 1.76773E+05  2946.2      122.76     0.33610    
1
1
                            STRESS PERIOD NO.    6, LENGTH =   2630000.    
                            -----------------------------------------------

                              NUMBER OF TIME STEPS =    30

                               MULTIPLIER FOR DELT =     1.000

                            INITIAL TIME STEP SIZE =   87666.66    

 REUSING NON-PARAMETER GHB CELLS FROM LAST STRESS PERIOD

      2 GHB CELLS

 REUSING STREAM SEGMENT DATA FROM LAST STRESS PERIOD



            AREAL INFILTRATION RATE
 READING ON UNIT   19 WITH FORMAT: (FREE)              

            1           2           3           4           5           6           7           8           9          10
 ........................................................................................................................
   1   1.0000E-10  2.0000E-10   0.000       0.000       0.000       0.000       0.000       0.000       0.000       0.000    
   2   2.0000E-10  1.0000E-10  2.0000E-10   0.000       0.000      8.0000E-10  8.0000E-10  5.0000E-10   0.000       0.000    
   3    0.000      5.0000E-10  1.0000E-10  1.0000E-10  8.0000E-10  8.0000E-10  5.0000E-10  5.0000E-10   0.000       0.000    
   4   8.0000E-10  5.0000E-10  1.0000E-10  1.0000E-10  1.0000E-10  1.0000E-10  1.0000E-10  1.0000E-10  2.0000E-10   0.000    
   5   8.0000E-10  5.0000E-10  1.0000E-10  1.0000E-10  1.0000E-10  1.0000E-10  1.0000E-10  1.0000E-10  1.0000E-10  1.0000E-10
   6   8.0000E-10  5.0000E-10  5.0000E-10  2.0000E-10  2.0000E-10  1.0000E-10  1.0000E-10  1.0000E-10  1.0000E-10  5.0000E-10
   7   8.0000E-10  5.0000E-10  5.0000E-10  2.0000E-10  2.0000E-10  1.0000E-10  1.0000E-10  2.0000E-10  2.0000E-10   0.000    
   8    0.000      5.0000E-10  5.0000E-10  2.0000E-10  2.0000E-10  1.0000E-10  1.0000E-10  2.0000E-10  5.0000E-10   0.000    
   9    0.000      5.0000E-10  5.0000E-10  2.0000E-10  2.0000E-10  1.0000E-10  1.0000E-10  2.0000E-10  5.0000E-10   0.000    
  10    0.000      5.0000E-10  5.0000E-10  2.0000E-10  2.0000E-10  1.0000E-10  1.0000E-10  2.0000E-10  5.0000E-10  8.0000E-10
  11    0.000      1.0000E-10  1.0000E-10  1.0000E-10  1.0000E-10  1.0000E-10  1.0000E-10  2.0000E-10  5.0000E-10   0.000    
  12   1.0000E-10  1.0000E-10  1.0000E-10  1.0000E-10  1.0000E-10  1.0000E-10  1.0000E-10  1.0000E-10  2.0000E-10   0.000    
  13   1.0000E-10  1.0000E-10  2.0000E-10  2.0000E-10  2.0000E-10  2.0000E-10  2.0000E-10  1.0000E-10  1.0000E-10   0.000    
  14    0.000      2.0000E-10  5.0000E-10  5.0000E-10  5.0000E-10  5.0000E-10  5.0000E-10  2.0000E-10  1.0000E-10   0.000    
  15    0.000       0.000      8.0000E-10  8.0000E-10  8.0000E-10  8.0000E-10   0.000       0.000       0.000       0.000    

                  ET RATE =  5.000000E-08

 USING ET EXTINCTION DEPTH FROM PREVIOUS STRESS PERIOD. CURRENT PERIOD IS:       6

 USING EXTINCTION WATER CONTENT FROM PREVIOUS STRESS PERIOD. CURRENT PERIOD IS:       6

 USING AIR ENTRY PRESSURE FROM PREVIOUS STRESS PERIOD. CURRENT PERIOD IS:       6

 USING ROOT PRESSURE HEAD FROM PREVIOUS STRESS PERIOD. CURRENT PERIOD IS:       6

 USING ROOT ACTIVITY FROM PREVIOUS STRESS PERIOD. CURRENT PERIOD IS:       6

 PROCESSING AG STRESS PERIOD DATA

 READING AG STRESS PERIOD DATA

 READING IRRIGATION WELL

 END PROCESSING AG STRESS PERIOD DATA OPTIONS
 
 SOLVING FOR HEAD 
                                                   Max.-Head-Change                         Max.-Flux-Residual
  Residual-Control   Outer-Iter.   Inner-Iter.     Column Row Layer    Maximum-Head-Change  Column Row Layer    Maximum-Flux-Residual          L2-NORM 
          0                 1           2             2   13     1       0.2250473356E-01       4   13    1         0.1302977919E+01      0.3454520417E+01
          0                 2           2             4   13     1      -0.2084653517E-02       4   13    1        -0.1289110497E+00      0.3404549200E+00
          0                 3           2             4   13     1       0.1398173102E-03       4   13    1         0.8889582456E-02      0.2339351293E-01
          0                 4           1             4    7     1       0.5489265105E-05       4   13    1        -0.3542615996E-03      0.9293167273E-03

    ------------------------------------------------
       NWT REQUIRED            4 OUTER ITERATIONS 
       AND A TOTAL OF          7 INNER ITERATIONS.
    ------------------------------------------------

 NO OUTPUT CONTROL FOR STRESS PERIOD    6   TIME STEP    1
 
 SOLVING FOR HEAD 
                                                   Max.-Head-Change                         Max.-Flux-Residual
  Residual-Control   Outer-Iter.   Inner-Iter.     Column Row Layer    Maximum-Head-Change  Column Row Layer    Maximum-Flux-Residual          L2-NORM 
          0                 1           2             4    7     1      -0.2069077352E-01       2   13    1         0.1173085734E+01      0.3272205395E+01
          0                 2           2             4    7     1       0.2012642564E-02       2   13    1        -0.1118955859E+00      0.3231968054E+00
          0                 3           2             4    7     1      -0.1370535506E-03       4   13    1         0.7682257214E-02      0.2225453225E-01
          0                 4           1             4    7     1       0.5453488282E-05       4    7    1         0.3101840721E-03      0.8868346964E-03

    ------------------------------------------------
       NWT REQUIRED            4 OUTER ITERATIONS 
       AND A TOTAL OF          7 INNER ITERATIONS.
    ------------------------------------------------

 NO OUTPUT CONTROL FOR STRESS PERIOD    6   TIME STEP    2
 
 SOLVING FOR HEAD 
                                                   Max.-Head-Change                         Max.-Flux-Residual
  Residual-Control   Outer-Iter.   Inner-Iter.     Column Row Layer    Maximum-Head-Change  Column Row Layer    Maximum-Flux-Residual          L2-NORM 
          0                 1           2             4    7     1      -0.2052603823E-01       2   13    1         0.1075563122E+01      0.3116828147E+01
          0                 2           2             4    7     1       0.1996618166E-02       4    7    1         0.1075081566E+00      0.3082991069E+00
          0                 3           2             4    7     1      -0.1359623505E-03       4    7    1        -0.7525577711E-02      0.2127086497E-01
          0                 4           1             4    7     1       0.5410068828E-05       4    7    1         0.3077965393E-03      0.8508440392E-03

    ------------------------------------------------
       NWT REQUIRED            4 OUTER ITERATIONS 
       AND A TOTAL OF          7 INNER ITERATIONS.
    ------------------------------------------------

 NO OUTPUT CONTROL FOR STRESS PERIOD    6   TIME STEP    3
 
 SOLVING FOR HEAD 
                                                   Max.-Head-Change                         Max.-Flux-Residual
  Residual-Control   Outer-Iter.   Inner-Iter.     Column Row Layer    Maximum-Head-Change  Column Row Layer    Maximum-Flux-Residual          L2-NORM 
          0                 1           2             4    7     1      -0.2035761035E-01       4    7    1        -0.1066528930E+01      0.2983924345E+01
          0                 2           2             4    7     1       0.1980234606E-02       4    7    1         0.1066525155E+00      0.2955514671E+00
          0                 3           2             4    7     1      -0.1348466921E-03       4    7    1        -0.7465682882E-02      0.2042836340E-01
          0                 4           1             4    7     1       0.5365676547E-05       4    7    1         0.3053468658E-03      0.8193921422E-03

    ------------------------------------------------
       NWT REQUIRED            4 OUTER ITERATIONS 
       AND A TOTAL OF          7 INNER ITERATIONS.
    ------------------------------------------------

 NO OUTPUT CONTROL FOR STRESS PERIOD    6   TIME STEP    4
 
 SOLVING FOR HEAD 
                                                   Max.-Head-Change                         Max.-Flux-Residual
  Residual-Control   Outer-Iter.   Inner-Iter.     Column Row Layer    Maximum-Head-Change  Column Row Layer    Maximum-Flux-Residual          L2-NORM 
          0                 1           2             4    7     1      -0.2018569216E-01       4    7    1        -0.1057766328E+01      0.2869728457E+01
          0                 2           2             4    7     1       0.1963511555E-02       4    7    1         0.1057762481E+00      0.2845910032E+00
          0                 3           2             4    7     1      -0.1337079147E-03       4    7    1        -0.7404344195E-02      0.1970309546E-01
          0                 4           1             4    7     1       0.5320362553E-05       4    7    1         0.3028380802E-03      0.7940122170E-03

    ------------------------------------------------
       NWT REQUIRED            4 OUTER ITERATIONS 
       AND A TOTAL OF          7 INNER ITERATIONS.
    ------------------------------------------------

 NO OUTPUT CONTROL FOR STRESS PERIOD    6   TIME STEP    5
 
 SOLVING FOR HEAD 
                                                   Max.-Head-Change                         Max.-Flux-Residual
  Residual-Control   Outer-Iter.   Inner-Iter.     Column Row Layer    Maximum-Head-Change  Column Row Layer    Maximum-Flux-Residual          L2-NORM 
          0                 1           2             4    7     1      -0.2001128100E-01       4    7    1        -0.1048852400E+01      0.2771087380E+01
          0                 2           2             4    7     1       0.1946546026E-02       4    7    1         0.1048848495E+00      0.2751140018E+00
          0                 3           2             4    7     1      -0.1325526259E-03       4    7    1        -0.7341946331E-02      0.1907552911E-01
          0                 4           1             4    7     1       0.5274392563E-05       4    7    1         0.3002859967E-03      0.7692433274E-03

    ------------------------------------------------
       NWT REQUIRED            4 OUTER ITERATIONS 
       AND A TOTAL OF          7 INNER ITERATIONS.
    ------------------------------------------------

 NO OUTPUT CONTROL FOR STRESS PERIOD    6   TIME STEP    6
 
 SOLVING FOR HEAD 
                                                   Max.-Head-Change                         Max.-Flux-Residual
  Residual-Control   Outer-Iter.   Inner-Iter.     Column Row Layer    Maximum-Head-Change  Column Row Layer    Maximum-Flux-Residual          L2-NORM 
          0                 1           2             4    7     1      -0.1983423776E-01       4    7    1        -0.1039779570E+01      0.2685346764E+01
          0                 2           2             4    7     1       0.1929324486E-02       4    7    1         0.1039775621E+00      0.2668644670E+00
          0                 3           2             4    7     1      -0.1313799034E-03       4    7    1        -0.7278436221E-02      0.1852780402E-01
          0                 4           1             4    7     1       0.5227728814E-05       4    7    1         0.2976884321E-03      0.7481501257E-03

    ------------------------------------------------
       NWT REQUIRED            4 OUTER ITERATIONS 
       AND A TOTAL OF          7 INNER ITERATIONS.
    ------------------------------------------------

 NO OUTPUT CONTROL FOR STRESS PERIOD    6   TIME STEP    7
 
 SOLVING FOR HEAD 
                                                   Max.-Head-Change                         Max.-Flux-Residual
  Residual-Control   Outer-Iter.   Inner-Iter.     Column Row Layer    Maximum-Head-Change  Column Row Layer    Maximum-Flux-Residual          L2-NORM 
          0                 1           2             4    7     1      -0.1965495247E-01       4    7    1        -0.1030570271E+01      0.2610301418E+01
          0                 2           2             4    7     1       0.1911884874E-02       4    7    1         0.1030566289E+00      0.2596318639E+00
          0                 3           2             4    7     1      -0.1301923311E-03       4    7    1        -0.7213970918E-02      0.1804605494E-01
          0                 4           1             4    7     1       0.5180474230E-05       4    7    1         0.2950517987E-03      0.7303495380E-03

    ------------------------------------------------
       NWT REQUIRED            4 OUTER ITERATIONS 
       AND A TOTAL OF          7 INNER ITERATIONS.
    ------------------------------------------------

 NO OUTPUT CONTROL FOR STRESS PERIOD    6   TIME STEP    8
 
 SOLVING FOR HEAD 
                                                   Max.-Head-Change                         Max.-Flux-Residual
  Residual-Control   Outer-Iter.   Inner-Iter.     Column Row Layer    Maximum-Head-Change  Column Row Layer    Maximum-Flux-Residual          L2-NORM 
          0                 1           2             4    7     1      -0.1947434227E-01       4    7    1        -0.1021274366E+01      0.2544154663E+01
          0                 2           2             4    7     1       0.1894316398E-02       4    7    1         0.1021270361E+00      0.2532438167E+00
          0                 3           2             4    7     1      -0.1289959835E-03       4    7    1        -0.7148899415E-02      0.1761975183E-01
          0                 4           1             4    7     1       0.5132870348E-05       4    7    1         0.2923903708E-03      0.7145250250E-03

    ------------------------------------------------
       NWT REQUIRED            4 OUTER ITERATIONS 
       AND A TOTAL OF          7 INNER ITERATIONS.
    ------------------------------------------------

 NO OUTPUT CONTROL FOR STRESS PERIOD    6   TIME STEP    9
 
 SOLVING FOR HEAD 
                                                   Max.-Head-Change                         Max.-Flux-Residual
  Residual-Control   Outer-Iter.   Inner-Iter.     Column Row Layer    Maximum-Head-Change  Column Row Layer    Maximum-Flux-Residual          L2-NORM 
          0                 1           2             4    7     1      -0.1929218658E-01       4    7    1        -0.1011880127E+01      0.2485409541E+01
          0                 2           2             4    7     1       0.1876597346E-02       4    7    1         0.1011876109E+00      0.2475558965E+00
          0                 3           2             4    7     1      -0.1277893815E-03       4    7    1        -0.7083139622E-02      0.1723885190E-01
          0                 4           1             4    7     1       0.5084858455E-05       4    7    1         0.2897007785E-03      0.6993055517E-03

    ------------------------------------------------
       NWT REQUIRED            4 OUTER ITERATIONS 
       AND A TOTAL OF          7 INNER ITERATIONS.
    ------------------------------------------------

 NO OUTPUT CONTROL FOR STRESS PERIOD    6   TIME STEP   10
 
 SOLVING FOR HEAD 
                                                   Max.-Head-Change                         Max.-Flux-Residual
  Residual-Control   Outer-Iter.   Inner-Iter.     Column Row Layer    Maximum-Head-Change  Column Row Layer    Maximum-Flux-Residual          L2-NORM 
          0                 1           2             4    7     1      -0.1910880682E-01       4    7    1        -0.1002405771E+01      0.2432825393E+01
          0                 2           2             4    7     1       0.1858759753E-02       4    7    1         0.1002401750E+00      0.2424577853E+00
          0                 3           2             4    7     1      -0.1265747077E-03       4    7    1        -0.7016819095E-02      0.1689668880E-01
          0                 4           1             4    7     1       0.5036525586E-05       4    7    1         0.2869882742E-03      0.6863541593E-03

    ------------------------------------------------
       NWT REQUIRED            4 OUTER ITERATIONS 
       AND A TOTAL OF          7 INNER ITERATIONS.
    ------------------------------------------------

 NO OUTPUT CONTROL FOR STRESS PERIOD    6   TIME STEP   11
 
 SOLVING FOR HEAD 
                                                   Max.-Head-Change                         Max.-Flux-Residual
  Residual-Control   Outer-Iter.   Inner-Iter.     Column Row Layer    Maximum-Head-Change  Column Row Layer    Maximum-Flux-Residual          L2-NORM 
          0                 1           2             4    7     1      -0.1892505052E-01       4    7    1        -0.9928975595E+00      0.2385435730E+01
          0                 2           2             4    7     1       0.1840885286E-02       4    7    1         0.9928935414E-01      0.2378526994E+00
          0                 3           2             4    7     1      -0.1253575231E-03       4    7    1        -0.6950261610E-02      0.1658620228E-01
          0                 4           1             4    7     1       0.4988093016E-05       4    7    1         0.2842660815E-03      0.6741730483E-03

    ------------------------------------------------
       NWT REQUIRED            4 OUTER ITERATIONS 
       AND A TOTAL OF          7 INNER ITERATIONS.
    ------------------------------------------------

 NO OUTPUT CONTROL FOR STRESS PERIOD    6   TIME STEP   12
 
 SOLVING FOR HEAD 
                                                   Max.-Head-Change                         Max.-Flux-Residual
  Residual-Control   Outer-Iter.   Inner-Iter.     Column Row Layer    Maximum-Head-Change  Column Row Layer    Maximum-Flux-Residual          L2-NORM 
          0                 1           2             4    7     1      -0.1874061417E-01       4    7    1        -0.9833402034E+00      0.2342379370E+01
          0                 2           2             4    7     1       0.1822944679E-02       4    7    1         0.9833361963E-01      0.2336544934E+00
          0                 3           2             4    7     1      -0.1241358337E-03       4    7    1        -0.6883360139E-02      0.1630249459E-01
          0                 4           1             4    7     1       0.4939480617E-05       4    7    1         0.2815297998E-03      0.6633310371E-03

    ------------------------------------------------
       NWT REQUIRED            4 OUTER ITERATIONS 
       AND A TOTAL OF          7 INNER ITERATIONS.
    ------------------------------------------------

 NO OUTPUT CONTROL FOR STRESS PERIOD    6   TIME STEP   13
 
 SOLVING FOR HEAD 
                                                   Max.-Head-Change                         Max.-Flux-Residual
  Residual-Control   Outer-Iter.   Inner-Iter.     Column Row Layer    Maximum-Head-Change  Column Row Layer    Maximum-Flux-Residual          L2-NORM 
          0                 1           2             4    7     1      -0.1855576878E-01       4    7    1        -0.9737475896E+00      0.2303008848E+01
          0                 2           2             4    7     1       0.1804964294E-02       4    7    1         0.9737436003E-01      0.2298083655E+00
          0                 3           2             4    7     1      -0.1229114358E-03       4    7    1        -0.6816211925E-02      0.1604149022E-01
          0                 4           1             4    7     1       0.4890760459E-05       4    7    1         0.2787834264E-03      0.6533278392E-03

    ------------------------------------------------
       NWT REQUIRED            4 OUTER ITERATIONS 
       AND A TOTAL OF          7 INNER ITERATIONS.
    ------------------------------------------------

 NO OUTPUT CONTROL FOR STRESS PERIOD    6   TIME STEP   14
 
 SOLVING FOR HEAD 
                                                   Max.-Head-Change                         Max.-Flux-Residual
  Residual-Control   Outer-Iter.   Inner-Iter.     Column Row Layer    Maximum-Head-Change  Column Row Layer    Maximum-Flux-Residual          L2-NORM 
          0                 1           2             4    7     1      -0.1837102137E-01       4    7    1        -0.9641485866E+00      0.2266760183E+01
          0                 2           2             4    7     1       0.1786993448E-02       4    7    1         0.9641446207E-01      0.2262592995E+00
          0                 3           2             4    7     1      -0.1216876873E-03       4    7    1        -0.6749019008E-02      0.1580005016E-01
          0                 4           1             4    7     1       0.4842066549E-05       4    7    1         0.2760352286E-03      0.6439092370E-03

    ------------------------------------------------
       NWT REQUIRED            4 OUTER ITERATIONS 
       AND A TOTAL OF          7 INNER ITERATIONS.
    ------------------------------------------------

 NO OUTPUT CONTROL FOR STRESS PERIOD    6   TIME STEP   15
 
 SOLVING FOR HEAD 
                                                   Max.-Head-Change                         Max.-Flux-Residual
  Residual-Control   Outer-Iter.   Inner-Iter.     Column Row Layer    Maximum-Head-Change  Column Row Layer    Maximum-Flux-Residual          L2-NORM 
          0                 1           2             4    7     1      -0.1818657041E-01       4    7    1        -0.9545546651E+00      0.2233183127E+01
          0                 2           2             4    7     1       0.1769051445E-02       4    7    1         0.9545507274E-01      0.2229655815E+00
          0                 3           2             4    7     1      -0.1204659029E-03       4    7    1        -0.6681861696E-02      0.1557515751E-01
          0                 4           1             4    7     1       0.4793450697E-05       4    7    1         0.2732885050E-03      0.6349678769E-03

    ------------------------------------------------
       NWT REQUIRED            4 OUTER ITERATIONS 
       AND A TOTAL OF          7 INNER ITERATIONS.
    ------------------------------------------------

 NO OUTPUT CONTROL FOR STRESS PERIOD    6   TIME STEP   16
 
 SOLVING FOR HEAD 
                                                   Max.-Head-Change                         Max.-Flux-Residual
  Residual-Control   Outer-Iter.   Inner-Iter.     Column Row Layer    Maximum-Head-Change  Column Row Layer    Maximum-Flux-Residual          L2-NORM 
          0                 1           2             4    7     1      -0.1800261355E-01       4    7    1        -0.9449761156E+00      0.2201916055E+01
          0                 2           2             4    7     1       0.1751157511E-02       4    7    1         0.9449722109E-01      0.2198915448E+00
          0                 3           1             4    7     1      -0.1192473948E-03       4    7    1        -0.6614812033E-02      0.1536636511E-01
          0                 4           1             4    7     1       0.4744967701E-05       4    7    1         0.2705461602E-03      0.6286801609E-03

    ------------------------------------------------
       NWT REQUIRED            4 OUTER ITERATIONS 
       AND A TOTAL OF          6 INNER ITERATIONS.
    ------------------------------------------------

 NO OUTPUT CONTROL FOR STRESS PERIOD    6   TIME STEP   17
 
 SOLVING FOR HEAD 
                                                   Max.-Head-Change                         Max.-Flux-Residual
  Residual-Control   Outer-Iter.   Inner-Iter.     Column Row Layer    Maximum-Head-Change  Column Row Layer    Maximum-Flux-Residual          L2-NORM 
          0                 1           2             4    7     1      -0.1781905672E-01       4    7    1        -0.9354083721E+00      0.2172646654E+01
          0                 2           2             4    7     1       0.1733302496E-02       4    7    1         0.9354045048E-01      0.2170094601E+00
          0                 3           1             4    7     1      -0.1180315342E-03       4    7    1        -0.6547838028E-02      0.1516708086E-01
          0                 4           1             4    7     1       0.4696587629E-05       4    7    1         0.2678069236E-03      0.6187161268E-03

    ------------------------------------------------
       NWT REQUIRED            4 OUTER ITERATIONS 
       AND A TOTAL OF          6 INNER ITERATIONS.
    ------------------------------------------------

 NO OUTPUT CONTROL FOR STRESS PERIOD    6   TIME STEP   18
 
 SOLVING FOR HEAD 
                                                   Max.-Head-Change                         Max.-Flux-Residual
  Residual-Control   Outer-Iter.   Inner-Iter.     Column Row Layer    Maximum-Head-Change  Column Row Layer    Maximum-Flux-Residual          L2-NORM 
          0                 1           2             4    7     1      -0.1763633591E-01       4    7    1        -0.9258761867E+00      0.2145105990E+01
          0                 2           2             4    7     1       0.1715528807E-02       4    7    1         0.9258723600E-01      0.2142926963E+00
          0                 3           1             4    7     1      -0.1168212112E-03       4    7    1        -0.6481112944E-02      0.1498042400E-01
          0                 4           1             4    7     1       0.4648427912E-05       4    7    1         0.2650778561E-03      0.6112709859E-03

    ------------------------------------------------
       NWT REQUIRED            4 OUTER ITERATIONS 
       AND A TOTAL OF          6 INNER ITERATIONS.
    ------------------------------------------------

 NO OUTPUT CONTROL FOR STRESS PERIOD    6   TIME STEP   19
 
 SOLVING FOR HEAD 
                                                   Max.-Head-Change                         Max.-Flux-Residual
  Residual-Control   Outer-Iter.   Inner-Iter.     Column Row Layer    Maximum-Head-Change  Column Row Layer    Maximum-Flux-Residual          L2-NORM 
          0                 1           2             4    7     1      -0.1745432528E-01       4    7    1        -0.9163725362E+00      0.2119084159E+01
          0                 2           2             4    7     1       0.1697824204E-02       4    7    1         0.9163687538E-01      0.2117218329E+00
          0                 3           1             4    7     1      -0.1156155926E-03       4    7    1        -0.6414587616E-02      0.1480317027E-01
          0                 4           1             4    7     1       0.4600455392E-05       4    7    1         0.2623569794E-03      0.6042744554E-03

    ------------------------------------------------
       NWT REQUIRED            4 OUTER ITERATIONS 
       AND A TOTAL OF          6 INNER ITERATIONS.
    ------------------------------------------------

 NO OUTPUT CONTROL FOR STRESS PERIOD    6   TIME STEP   20
 
 SOLVING FOR HEAD 
                                                   Max.-Head-Change                         Max.-Flux-Residual
  Residual-Control   Outer-Iter.   Inner-Iter.     Column Row Layer    Maximum-Head-Change  Column Row Layer    Maximum-Flux-Residual          L2-NORM 
          0                 1           2             4    7     1      -0.1727344372E-01       4    7    1        -0.9069205237E+00      0.2094411294E+01
          0                 2           2             4    7     1       0.1680229434E-02       4    7    1         0.9069167880E-01      0.2092809497E+00
          0                 3           1             4    7     1      -0.1144174541E-03       4    7    1        -0.6348423814E-02      0.1463486356E-01
          0                 4           1             4    7     1       0.4552780593E-05       4    7    1         0.2596508912E-03      0.5977583199E-03

    ------------------------------------------------
       NWT REQUIRED            4 OUTER ITERATIONS 
       AND A TOTAL OF          6 INNER ITERATIONS.
    ------------------------------------------------

 NO OUTPUT CONTROL FOR STRESS PERIOD    6   TIME STEP   21
 
 SOLVING FOR HEAD 
                                                   Max.-Head-Change                         Max.-Flux-Residual
  Residual-Control   Outer-Iter.   Inner-Iter.     Column Row Layer    Maximum-Head-Change  Column Row Layer    Maximum-Flux-Residual          L2-NORM 
          0                 1           2             4    7     1      -0.1709354018E-01       4    7    1        -0.8975122423E+00      0.2070933330E+01
          0                 2           2             4    7     1       0.1662729801E-02       4    7    1         0.8975085557E-01      0.2069556218E+00
          0                 3           1             4    7     1      -0.1132257925E-03       4    7    1        -0.6282566083E-02      0.1447419301E-01
          0                 4           1             4    7     1       0.4505363218E-05       4    7    1         0.2569572889E-03      0.5911068212E-03

    ------------------------------------------------
       NWT REQUIRED            4 OUTER ITERATIONS 
       AND A TOTAL OF          6 INNER ITERATIONS.
    ------------------------------------------------

 NO OUTPUT CONTROL FOR STRESS PERIOD    6   TIME STEP   22
 
 SOLVING FOR HEAD 
                                                   Max.-Head-Change                         Max.-Flux-Residual
  Residual-Control   Outer-Iter.   Inner-Iter.     Column Row Layer    Maximum-Head-Change  Column Row Layer    Maximum-Flux-Residual          L2-NORM 
          0                 1           2             4    7     1      -0.1691527606E-01       4    7    1        -0.8881842966E+00      0.2048533804E+01
          0                 2           2             4    7     1       0.1645389641E-02       4    7    1         0.8881806610E-01      0.2047349021E+00
          0                 3           1             4    7     1      -0.1120449912E-03       4    7    1        -0.6217270746E-02      0.1432062788E-01
          0                 4           1             4    7     1       0.4458378033E-05       4    7    1         0.2542867082E-03      0.5850489426E-03

    ------------------------------------------------
       NWT REQUIRED            4 OUTER ITERATIONS 
       AND A TOTAL OF          6 INNER ITERATIONS.
    ------------------------------------------------

 NO OUTPUT CONTROL FOR STRESS PERIOD    6   TIME STEP   23
 
 SOLVING FOR HEAD 
                                                   Max.-Head-Change                         Max.-Flux-Residual
  Residual-Control   Outer-Iter.   Inner-Iter.     Column Row Layer    Maximum-Head-Change  Column Row Layer    Maximum-Flux-Residual          L2-NORM 
          0                 1           2             4    7     1      -0.1673818961E-01       4    7    1        -0.8789117316E+00      0.2027088876E+01
          0                 2           2             4    7     1       0.1628164039E-02       4    7    1         0.8789081489E-01      0.2026061086E+00
          0                 3           1             4    7     1      -0.1108719914E-03       4    7    1        -0.6152363084E-02      0.1417294327E-01
          0                 4           1             4    7     1       0.4411703692E-05       4    7    1         0.2516320092E-03      0.5790206377E-03

    ------------------------------------------------
       NWT REQUIRED            4 OUTER ITERATIONS 
       AND A TOTAL OF          6 INNER ITERATIONS.
    ------------------------------------------------

 NO OUTPUT CONTROL FOR STRESS PERIOD    6   TIME STEP   24
 
 SOLVING FOR HEAD 
                                                   Max.-Head-Change                         Max.-Flux-Residual
  Residual-Control   Outer-Iter.   Inner-Iter.     Column Row Layer    Maximum-Head-Change  Column Row Layer    Maximum-Flux-Residual          L2-NORM 
          0                 1           2             4    7     1      -0.1656238744E-01       4    7    1        -0.8697002307E+00      0.2006522902E+01
          0                 2           2             4    7     1       0.1611063365E-02       4    7    1         0.8696967025E-01      0.2005633524E+00
          0                 3           1             4    7     1      -0.1097074978E-03       4    7    1        -0.6087882880E-02      0.1403135566E-01
          0                 4           1             4    7     1       0.4365367135E-05       4    7    1         0.2489947469E-03      0.5733692675E-03

    ------------------------------------------------
       NWT REQUIRED            4 OUTER ITERATIONS 
       AND A TOTAL OF          6 INNER ITERATIONS.
    ------------------------------------------------

 NO OUTPUT CONTROL FOR STRESS PERIOD    6   TIME STEP   25
 
 SOLVING FOR HEAD 
                                                   Max.-Head-Change                         Max.-Flux-Residual
  Residual-Control   Outer-Iter.   Inner-Iter.     Column Row Layer    Maximum-Head-Change  Column Row Layer    Maximum-Flux-Residual          L2-NORM 
          0                 1           2             4    7     1      -0.1638849351E-01       4    7    1        -0.8605849418E+00      0.1986738435E+01
          0                 2           2             4    7     1       0.1594148312E-02       4    7    1         0.8605814691E-01      0.1985966243E+00
          0                 3           1             4    7     1      -0.1085556443E-03       4    7    1        -0.6024076159E-02      0.1389486650E-01
          0                 4           1             4    7     1       0.4319533916E-05       4    7    1         0.2463850410E-03      0.5679047519E-03

    ------------------------------------------------
       NWT REQUIRED            4 OUTER ITERATIONS 
       AND A TOTAL OF          6 INNER ITERATIONS.
    ------------------------------------------------

 NO OUTPUT CONTROL FOR STRESS PERIOD    6   TIME STEP   26
 
 SOLVING FOR HEAD 
                                                   Max.-Head-Change                         Max.-Flux-Residual
  Residual-Control   Outer-Iter.   Inner-Iter.     Column Row Layer    Maximum-Head-Change  Column Row Layer    Maximum-Flux-Residual          L2-NORM 
          0                 1           2             4    7     1      -0.1621602097E-01       4    7    1        -0.8515389752E+00      0.1967672109E+01
          0                 2           2             4    7     1       0.1577371522E-02       4    7    1         0.8515355589E-01      0.1966997074E+00
          0                 3           1             4    7     1      -0.1074132066E-03       4    7    1        -0.5960754711E-02      0.1376281604E-01
          0                 4           1             4    7     1       0.4274075323E-05       4    7    1         0.2437951953E-03      0.5625668438E-03

    ------------------------------------------------
       NWT REQUIRED            4 OUTER ITERATIONS 
       AND A TOTAL OF          6 INNER ITERATIONS.
    ------------------------------------------------

 NO OUTPUT CONTROL FOR STRESS PERIOD    6   TIME STEP   27
 
 SOLVING FOR HEAD 
                                                   Max.-Head-Change                         Max.-Flux-Residual
  Residual-Control   Outer-Iter.   Inner-Iter.     Column Row Layer    Maximum-Head-Change  Column Row Layer    Maximum-Flux-Residual          L2-NORM 
          0                 1           2             4    7     1      -0.1604531998E-01       4    7    1        -0.8425815182E+00      0.1949284257E+01
          0                 2           2             4    7     1       0.1560767057E-02       4    7    1         0.8425781591E-01      0.1948694394E+00
          0                 3           1             4    7     1      -0.1062825031E-03       4    7    1        -0.5898052835E-02      0.1363547382E-01
          0                 4           1             4    7     1       0.4229083226E-05       4    7    1         0.2412306749E-03      0.5573468567E-03

    ------------------------------------------------
       NWT REQUIRED            4 OUTER ITERATIONS 
       AND A TOTAL OF          6 INNER ITERATIONS.
    ------------------------------------------------

 NO OUTPUT CONTROL FOR STRESS PERIOD    6   TIME STEP   28
 
 SOLVING FOR HEAD 
                                                   Max.-Head-Change                         Max.-Flux-Residual
  Residual-Control   Outer-Iter.   Inner-Iter.     Column Row Layer    Maximum-Head-Change  Column Row Layer    Maximum-Flux-Residual          L2-NORM 
          0                 1           2             4    7     1      -0.1587616765E-01       4    7    1        -0.8337011082E+00      0.1931494765E+01
          0                 2           2             4    7     1       0.1544313236E-02       4    7    1         0.8336978068E-01      0.1930977883E+00
          0                 3           1             4    7     1      -0.1051620582E-03       4    7    1        -0.5835890288E-02      0.1351207743E-01
          0                 4           1             4    7     1       0.4184500293E-05       4    7    1         0.2386882320E-03      0.5522209643E-03

    ------------------------------------------------
       NWT REQUIRED            4 OUTER ITERATIONS 
       AND A TOTAL OF          6 INNER ITERATIONS.
    ------------------------------------------------

 NO OUTPUT CONTROL FOR STRESS PERIOD    6   TIME STEP   29
 
 SOLVING FOR HEAD 
                                                   Max.-Head-Change                         Max.-Flux-Residual
  Residual-Control   Outer-Iter.   Inner-Iter.     Column Row Layer    Maximum-Head-Change  Column Row Layer    Maximum-Flux-Residual          L2-NORM 
          0                 1           2             4    7     1      -0.1570892187E-01       4    7    1        -0.8249158056E+00      0.1901051941E+01
          0                 2           2             4    7     1       0.1528044871E-02       4    7    1         0.8249125626E-01      0.1900939685E+00
          0                 3           1             4    7     1      -0.1040542422E-03       4    7    1        -0.5774393507E-02      0.1330561099E-01
          0                 4           1             4    7     1       0.4140418856E-05       4    7    1         0.2361730094E-03      0.5440874595E-03

    ------------------------------------------------
       NWT REQUIRED            4 OUTER ITERATIONS 
       AND A TOTAL OF          6 INNER ITERATIONS.
    ------------------------------------------------

 NO OUTPUT CONTROL FOR STRESS PERIOD    6   TIME STEP   30



 STREAM LISTING     PERIOD      6   STEP       30

 LAYER ROW COL. STREAM  RCH.  FLOW INTO     FLOW TO   FLOW OUT OF   OVRLND.     DIRECT     STREAM       STREAM     STREAM     STREAM   STREAMBED  STREAMBED
                SEG.NO.  NO.  STRM. RCH.    AQUIFER    STRM. RCH.    RUNOFF     PRECIP       ET          HEAD       DEPTH      WIDTH   CONDCTNC.   GRADIENT

   1    1    1     1     1    9.2355E+01  4.5966E-01   9.1895E+01  0.000E+00  0.000E+00  0.000E+00  1.09482E+03  1.771E+00  2.141E+01  9.635E-02  1.590E+00
   1    2    2     1     2    9.1895E+01  7.1318E-01   9.1182E+01  0.000E+00  0.000E+00  0.000E+00  1.08983E+03  1.769E+00  2.136E+01  1.496E-01  1.590E+00
   1    3    3     1     3    9.1182E+01  6.0950E-01   9.0573E+01  0.000E+00  0.000E+00  0.000E+00  1.08418E+03  1.766E+00  2.131E+01  1.279E-01  1.589E+00
   1    3    4     1     4    9.0573E+01  5.6231E-01   9.0010E+01  0.000E+00  0.000E+00  0.000E+00  1.07917E+03  1.764E+00  2.127E+01  1.180E-01  1.588E+00
   1    4    5     2     1    8.8010E+01  4.3413E-01   8.7576E+01  0.000E+00  0.000E+00  0.000E+00  1.07450E+03  2.566E+00  1.200E+01  7.800E-02  1.855E+00
   1    5    6     2     2    8.7576E+01  3.3354E-01   8.7243E+01  0.000E+00  0.000E+00  0.000E+00  1.06907E+03  2.559E+00  1.200E+01  6.000E-02  1.853E+00
   1    6    6     2     3    8.7243E+01  3.3319E-01   8.6909E+01  0.000E+00  0.000E+00  0.000E+00  1.06435E+03  2.553E+00  1.200E+01  6.000E-02  1.851E+00
   1    7    6     2     4    8.6909E+01  3.3284E-01   8.6576E+01  0.000E+00  0.000E+00  0.000E+00  1.05962E+03  2.547E+00  1.200E+01  6.000E-02  1.849E+00
   1    8    6     2     5    8.6576E+01  3.3249E-01   8.6244E+01  0.000E+00  0.000E+00  0.000E+00  1.05490E+03  2.541E+00  1.200E+01  6.000E-02  1.847E+00
   1    3    5     3     1    2.0000E+00  2.8252E-01   1.7175E+00  0.000E+00  0.000E+00  0.000E+00  1.07555E+03  1.909E+00  9.636E+00  7.227E-02  1.955E+00
   1    3    6     3     2    1.7175E+00  2.4905E-01   1.4684E+00  0.000E+00  0.000E+00  0.000E+00  1.07264E+03  1.727E+00  8.909E+00  6.682E-02  1.864E+00
   1    3    7     3     3    1.4684E+00  1.9718E-01   1.2712E+00  0.000E+00  0.000E+00  0.000E+00  1.06987E+03  1.555E+00  8.218E+00  5.547E-02  1.777E+00
   1    4    8     3     4    1.2712E+00  2.2567E-01   1.0456E+00  0.000E+00  0.000E+00  0.000E+00  1.06682E+03  1.364E+00  7.455E+00  6.709E-02  1.682E+00
   1    5    8     3     5    1.0456E+00  1.5790E-01   8.8768E-01  0.000E+00  0.000E+00  0.000E+00  1.06362E+03  1.164E+00  6.655E+00  4.991E-02  1.582E+00
   1    6    8     3     6    8.8768E-01  5.5980E-02   8.3170E-01  0.000E+00  0.000E+00  0.000E+00  1.06158E+03  1.036E+00  6.145E+00  1.844E-02  1.518E+00
   1    5   10     4     1    1.0000E+01  9.0919E-02   9.9091E+00  0.000E+00  0.000E+00  0.000E+00  1.07836E+03  6.368E-01  1.000E+01  2.500E-02  1.212E+00
   1    5    9     4     2    9.9091E+00  1.8158E-01   9.7275E+00  0.000E+00  0.000E+00  0.000E+00  1.07154E+03  6.315E-01  1.000E+01  5.000E-02  1.211E+00
   1    6    8     4     3    9.7275E+00  1.2689E-01   9.6006E+00  0.000E+00  0.000E+00  0.000E+00  1.06381E+03  6.256E-01  1.000E+01  3.500E-02  1.209E+00
   1    6    8     5     1    1.0432E+01  2.2686E-01   1.0205E+01  0.000E+00  0.000E+00  0.000E+00  1.05868E+03  6.790E-01  1.542E+01  6.166E-02  1.226E+00
   1    7    7     5     2    1.0205E+01  2.7894E-01   9.9265E+00  0.000E+00  0.000E+00  0.000E+00  1.05417E+03  6.732E-01  1.519E+01  7.594E-02  1.224E+00
   1    8    7     5     3    9.9265E+00  1.9221E-01   9.7343E+00  0.000E+00  0.000E+00  0.000E+00  1.04992E+03  6.676E-01  1.497E+01  5.241E-02  1.223E+00
   1    8    6     5     4    9.7343E+00  1.3577E-01   9.5985E+00  0.000E+00  0.000E+00  0.000E+00  1.04691E+03  6.637E-01  1.482E+01  3.706E-02  1.221E+00
   1    9    6     6     1    9.5843E+01  3.4390E-01   9.5499E+01  0.000E+00  0.000E+00  0.000E+00  1.04546E+03  2.732E+00  1.200E+01  6.000E-02  1.911E+00
   1   10    7     6     2    9.5499E+01  3.4355E-01   9.5155E+01  0.000E+00  0.000E+00  0.000E+00  1.04091E+03  2.726E+00  1.200E+01  6.000E-02  1.909E+00
   1   11    7     6     3    9.5155E+01  3.4320E-01   9.4812E+01  0.000E+00  0.000E+00  0.000E+00  1.03636E+03  2.720E+00  1.200E+01  6.000E-02  1.907E+00
   1   12    7     6     4    9.4812E+01  3.4284E-01   9.4469E+01  0.000E+00  0.000E+00  0.000E+00  1.03180E+03  2.714E+00  1.200E+01  6.000E-02  1.905E+00
   1   13    7     6     5    9.4469E+01  3.3805E-02   9.4435E+01  0.000E+00  0.000E+00  0.000E+00  1.02862E+03  2.711E+00  1.200E+01  2.400E-02  4.695E-01
   1   14    9     7     1    1.5000E+02  1.3319E+00   1.4867E+02  0.000E+00  0.000E+00  0.000E+00  1.03987E+03  2.288E+00  5.529E+01  5.593E-01  7.938E-01
   1   13    8     7     2    1.4867E+02  1.8070E+00   1.4686E+02  0.000E+00  0.000E+00  0.000E+00  1.03478E+03  2.279E+00  5.526E+01  6.148E-01  9.797E-01
   1   13    7     7     3    1.4686E+02  1.3844E+00   1.4548E+02  0.000E+00  0.000E+00  0.000E+00  1.02969E+03  2.271E+00  5.522E+01  5.585E-01  8.263E-01
   1   13    6     8     1    2.3991E+02  1.1021E+00   2.3881E+02  0.000E+00  0.000E+00  0.000E+00  1.02523E+03  3.356E+00  4.867E+01  4.959E-01  7.407E-01
   1   13    5     8     2    2.3881E+02  2.5269E-01   2.3856E+02  0.000E+00  0.000E+00  0.000E+00  1.01898E+03  3.353E+00  4.862E+01  4.954E-01  1.700E-01
   1   13    4     8     3    2.3856E+02 -2.1548E+00   2.4071E+02  0.000E+00  0.000E+00  0.000E+00  1.01273E+03  3.358E+00  4.869E+01  4.962E+00 -1.448E-01
   1   13    3     8     4    2.4071E+02 -3.3590E+00   2.4407E+02  0.000E+00  0.000E+00  0.000E+00  1.00650E+03  3.372E+00  4.890E+01  4.983E+00 -2.247E-01
   1   13    2     8     5    2.4407E+02 -2.5225E+00   2.4659E+02  0.000E+00  0.000E+00  0.000E+00  1.00026E+03  3.388E+00  4.912E+01  5.005E+00 -1.680E-01
   1   13    1     8     6    2.4659E+02 -1.8906E+00   2.4848E+02  0.000E+00  0.000E+00  0.000E+00  9.95274E+02  3.399E+00  4.928E+01  3.013E+00 -2.091E-01





UNSATURATED ZONE PACKAGE VOLUMETRIC BUDGET FOR  TIME STEP    30 STRESS PERIOD    6
  ------------------------------------------------------------------------------



     CUMULATIVE VOLUMES      L**3       RATES FOR THIS TIME STEP      L**3/T
     ------------------                 ------------------------

           IN:                                      IN:
           ---                                      ---
        INFILTRATION =    40647706.5976          INFILTRATION =           8.3175

          OUT:                                     OUT:
          ----                                     ----
              UZF ET =    40573738.0719                UZF ET =           8.3175
        UZF RECHARGE =       73224.0000          UZF RECHARGE =       0.0000E+00

            IN - OUT =         744.5257              IN - OUT =       0.0000E+00

          STORAGE:                                 STORAGE:
          --------                                 --------
      STORAGE CHANGE =         744.5742        STORAGE CHANGE =       8.3963E-15

 PERCENT DISCREPANCY IS DIFFERENCE BETWEEN IN-OUT MINUS CHANGE IN STORAGE
 DIVIDED BY THE AVERAGE OF IN AND OUT TIMES 100

 PERCENT DISCREPANCY =           0.00     PERCENT DISCREPANCY =           0.00






1
  VOLUMETRIC BUDGET FOR AGRICULTURAL FIELDS AT  END OF TIME STEP   30, STRESS PERIOD   6
  ------------------------------------------------------------------------------

     CUMULATIVE VOLUMES      L**3       RATES FOR THIS TIME STEP      L**3/T
     ------------------                 ------------------------

           IN:                                      IN:
           ---                                      ---
               AG WELLS  =    29429858.0000                 AG WELLS  =           7.4700
      DIVERSION SEGMENTS =           0.0000        DIVERSION SEGMENTS =           0.0000
           GW IRRIGATION =           0.0000             GW IRRIGATION =           0.0000
           SW IRRIGATION =           0.0000             SW IRRIGATION =           0.0000
        SYSTEM LOSSES GW =           0.0000          SYSTEM LOSSES GW =           0.0000
        SYSTEM LOSSES SW =           0.0000          SYSTEM LOSSES SW =           0.0000

                TOTAL IN =    29429858.0000                  TOTAL IN =           7.4700

          OUT:                                     OUT:
          ----                                     ----
               AG WELLS  =           0.0000                 AG WELLS  =           0.0000
      DIVERSION SEGMENTS =           0.0000        DIVERSION SEGMENTS =           0.0000
           GW IRRIGATION =    29429858.0000             GW IRRIGATION =           7.4700
           SW IRRIGATION =           0.0000             SW IRRIGATION =           0.0000
        SYSTEM LOSSES GW =           0.0000          SYSTEM LOSSES GW =           0.0000
        SYSTEM LOSSES SW =           0.0000          SYSTEM LOSSES SW =           0.0000

               TOTAL OUT =    29429858.0000                 TOTAL OUT =           7.4700

                IN - OUT =           0.0000                  IN - OUT =           0.0000

     PERCENT DISCREPANCY =           0.00         PERCENT DISCREPANCY =           0.00



1
  VOLUMETRIC BUDGET FOR ENTIRE MODEL AT END OF TIME STEP   30, STRESS PERIOD   6
  ------------------------------------------------------------------------------

     CUMULATIVE VOLUMES      L**3       RATES FOR THIS TIME STEP      L**3/T
     ------------------                 ------------------------

           IN:                                      IN:
           ---                                      ---
             STORAGE     =    36217660.0000               STORAGE     =           7.0072
       CONSTANT HEAD     =           0.0000         CONSTANT HEAD     =           0.0000
     HEAD DEP BOUNDS     =     3778269.5000       HEAD DEP BOUNDS     =           0.2855
      STREAM LEAKAGE     =   166669760.0000        STREAM LEAKAGE     =          13.7976
        UZF RECHARGE     =       73223.9531          UZF RECHARGE     =           0.0000
               GW ET     =           0.0000                 GW ET     =           0.0000
     SURFACE LEAKAGE     =           0.0000       SURFACE LEAKAGE     =           0.0000
           AG WELLS      =           0.0000             AG WELLS      =           0.0000

                TOTAL IN =   206738912.0000                  TOTAL IN =          21.0902

          OUT:                                     OUT:
          ----                                     ----
             STORAGE     =    36777200.0000               STORAGE     =           2.5503
       CONSTANT HEAD     =           0.0000         CONSTANT HEAD     =           0.0000
     HEAD DEP BOUNDS     =     3885196.5000       HEAD DEP BOUNDS     =           0.3003
      STREAM LEAKAGE     =   134603904.0000        STREAM LEAKAGE     =           9.9268
        UZF RECHARGE     =           0.0000          UZF RECHARGE     =           0.0000
               GW ET     =     2045195.3750                 GW ET     =           0.8429
     SURFACE LEAKAGE     =           0.0000       SURFACE LEAKAGE     =           0.0000
           AG WELLS      =    29429858.0000             AG WELLS      =           7.4700

               TOTAL OUT =   206741360.0000                 TOTAL OUT =          21.0903

                IN - OUT =       -2448.0000                  IN - OUT =      -1.3351E-05

     PERCENT DISCREPANCY =          -0.00         PERCENT DISCREPANCY =          -0.00






         TIME SUMMARY AT END OF TIME STEP   30 IN STRESS PERIOD    6
                    SECONDS     MINUTES      HOURS       DAYS        YEARS
                    -----------------------------------------------------------
   TIME STEP LENGTH  87667.      1461.1      24.352      1.0147     2.77799E-03
 STRESS PERIOD TIME 2.63000E+06  43833.      730.56      30.440     8.33397E-02
         TOTAL TIME 1.32364E+07 2.20607E+05  3676.8      153.20     0.41944    
1
1
                            STRESS PERIOD NO.    7, LENGTH =   2630000.    
                            -----------------------------------------------

                              NUMBER OF TIME STEPS =    30

                               MULTIPLIER FOR DELT =     1.000

                            INITIAL TIME STEP SIZE =   87666.66    

 REUSING NON-PARAMETER GHB CELLS FROM LAST STRESS PERIOD

      2 GHB CELLS

 REUSING STREAM SEGMENT DATA FROM LAST STRESS PERIOD



            AREAL INFILTRATION RATE
 READING ON UNIT   19 WITH FORMAT: (FREE)              

            1           2           3           4           5           6           7           8           9          10
 ........................................................................................................................
   1   1.0000E-10  2.0000E-10   0.000       0.000       0.000       0.000       0.000       0.000       0.000       0.000    
   2   2.0000E-10  1.0000E-10  2.0000E-10   0.000       0.000      8.0000E-10  8.0000E-10  5.0000E-10   0.000       0.000    
   3    0.000      5.0000E-10  1.0000E-10  1.0000E-10  8.0000E-10  8.0000E-10  5.0000E-10  5.0000E-10   0.000       0.000    
   4   8.0000E-10  5.0000E-10  1.0000E-10  1.0000E-10  1.0000E-10  1.0000E-10  1.0000E-10  1.0000E-10  2.0000E-10   0.000    
   5   8.0000E-10  5.0000E-10  1.0000E-10  1.0000E-10  1.0000E-10  1.0000E-10  1.0000E-10  1.0000E-10  1.0000E-10  1.0000E-10
   6   8.0000E-10  5.0000E-10  5.0000E-10  2.0000E-10  2.0000E-10  1.0000E-10  1.0000E-10  1.0000E-10  1.0000E-10  5.0000E-10
   7   8.0000E-10  5.0000E-10  5.0000E-10  2.0000E-10  2.0000E-10  1.0000E-10  1.0000E-10  2.0000E-10  2.0000E-10   0.000    
   8    0.000      5.0000E-10  5.0000E-10  2.0000E-10  2.0000E-10  1.0000E-10  1.0000E-10  2.0000E-10  5.0000E-10   0.000    
   9    0.000      5.0000E-10  5.0000E-10  2.0000E-10  2.0000E-10  1.0000E-10  1.0000E-10  2.0000E-10  5.0000E-10   0.000    
  10    0.000      5.0000E-10  5.0000E-10  2.0000E-10  2.0000E-10  1.0000E-10  1.0000E-10  2.0000E-10  5.0000E-10  8.0000E-10
  11    0.000      1.0000E-10  1.0000E-10  1.0000E-10  1.0000E-10  1.0000E-10  1.0000E-10  2.0000E-10  5.0000E-10   0.000    
  12   1.0000E-10  1.0000E-10  1.0000E-10  1.0000E-10  1.0000E-10  1.0000E-10  1.0000E-10  1.0000E-10  2.0000E-10   0.000    
  13   1.0000E-10  1.0000E-10  2.0000E-10  2.0000E-10  2.0000E-10  2.0000E-10  2.0000E-10  1.0000E-10  1.0000E-10   0.000    
  14    0.000      2.0000E-10  5.0000E-10  5.0000E-10  5.0000E-10  5.0000E-10  5.0000E-10  2.0000E-10  1.0000E-10   0.000    
  15    0.000       0.000      8.0000E-10  8.0000E-10  8.0000E-10  8.0000E-10   0.000       0.000       0.000       0.000    

                  ET RATE =  1.500000E-07

 USING ET EXTINCTION DEPTH FROM PREVIOUS STRESS PERIOD. CURRENT PERIOD IS:       7

 USING EXTINCTION WATER CONTENT FROM PREVIOUS STRESS PERIOD. CURRENT PERIOD IS:       7

 USING AIR ENTRY PRESSURE FROM PREVIOUS STRESS PERIOD. CURRENT PERIOD IS:       7

 USING ROOT PRESSURE HEAD FROM PREVIOUS STRESS PERIOD. CURRENT PERIOD IS:       7

 USING ROOT ACTIVITY FROM PREVIOUS STRESS PERIOD. CURRENT PERIOD IS:       7

 PROCESSING AG STRESS PERIOD DATA

 READING AG STRESS PERIOD DATA

 READING IRRIGATION WELL

 END PROCESSING AG STRESS PERIOD DATA OPTIONS
 
 SOLVING FOR HEAD 
                                                   Max.-Head-Change                         Max.-Flux-Residual
  Residual-Control   Outer-Iter.   Inner-Iter.     Column Row Layer    Maximum-Head-Change  Column Row Layer    Maximum-Flux-Residual          L2-NORM 
          0                 1           2             4    7     1      -0.6342410682E-01       4    7    1        -0.3316229477E+01      0.7964822852E+01
          0                 2           2             4    7     1       0.6161659082E-02       4    7    1         0.3312050816E+00      0.7948952785E+00
          0                 3           2             4    7     1      -0.4195908479E-03       4    7    1        -0.2318462814E-01      0.5559025211E-01
          0                 4           1             4    7     1       0.1669170675E-04       4    7    1         0.9480140839E-03      0.2270043534E-02

    ------------------------------------------------
       NWT REQUIRED            4 OUTER ITERATIONS 
       AND A TOTAL OF          7 INNER ITERATIONS.
    ------------------------------------------------

 NO OUTPUT CONTROL FOR STRESS PERIOD    7   TIME STEP    1
 
 SOLVING FOR HEAD 
                                                   Max.-Head-Change                         Max.-Flux-Residual
  Residual-Control   Outer-Iter.   Inner-Iter.     Column Row Layer    Maximum-Head-Change  Column Row Layer    Maximum-Flux-Residual          L2-NORM 
          0                 1           2             4    7     1      -0.6300567330E-01       4    7    1        -0.3295497783E+01      0.7788868241E+01
          0                 2           2             4    7     1       0.6128687531E-02       4    7    1         0.3295468318E+00      0.7784746178E+00
          0                 3           2             4    7     1      -0.4173456317E-03       4    7    1        -0.2306855223E-01      0.5445762677E-01
          0                 4           1             4    7     1       0.1660236797E-04       4    7    1         0.9432665765E-03      0.2224829550E-02

    ------------------------------------------------
       NWT REQUIRED            4 OUTER ITERATIONS 
       AND A TOTAL OF          7 INNER ITERATIONS.
    ------------------------------------------------

 NO OUTPUT CONTROL FOR STRESS PERIOD    7   TIME STEP    2
 
 SOLVING FOR HEAD 
                                                   Max.-Head-Change                         Max.-Flux-Residual
  Residual-Control   Outer-Iter.   Inner-Iter.     Column Row Layer    Maximum-Head-Change  Column Row Layer    Maximum-Flux-Residual          L2-NORM 
          0                 1           2             4    7     1      -0.6256949497E-01       4    7    1        -0.3273745168E+01      0.7636786976E+01
          0                 2           2             4    7     1       0.6086257183E-02       4    7    1         0.3273714235E+00      0.7633889090E+00
          0                 3           2             4    7     1      -0.4144563024E-03       4    7    1        -0.2291627497E-01      0.5341282608E-01
          0                 4           1             4    7     1       0.1648739832E-04       4    7    1         0.9370384018E-03      0.2182559414E-02

    ------------------------------------------------
       NWT REQUIRED            4 OUTER ITERATIONS 
       AND A TOTAL OF          7 INNER ITERATIONS.
    ------------------------------------------------

 NO OUTPUT CONTROL FOR STRESS PERIOD    7   TIME STEP    3
 
 SOLVING FOR HEAD 
                                                   Max.-Head-Change                         Max.-Flux-Residual
  Residual-Control   Outer-Iter.   Inner-Iter.     Column Row Layer    Maximum-Head-Change  Column Row Layer    Maximum-Flux-Residual          L2-NORM 
          0                 1           2             4    7     1      -0.6211762255E-01       4    7    1        -0.3251084410E+01      0.7502102730E+01
          0                 2           2             4    7     1       0.6042300502E-02       4    7    1         0.3251052198E+00      0.7500072063E+00
          0                 3           2             4    7     1      -0.4114630338E-03       4    7    1        -0.2275764188E-01      0.5248366246E-01
          0                 4           1             4    7     1       0.1636829375E-04       4    7    1         0.9305503008E-03      0.2144981583E-02

    ------------------------------------------------
       NWT REQUIRED            4 OUTER ITERATIONS 
       AND A TOTAL OF          7 INNER ITERATIONS.
    ------------------------------------------------

 NO OUTPUT CONTROL FOR STRESS PERIOD    7   TIME STEP    4
 
 SOLVING FOR HEAD 
                                                   Max.-Head-Change                         Max.-Flux-Residual
  Residual-Control   Outer-Iter.   Inner-Iter.     Column Row Layer    Maximum-Head-Change  Column Row Layer    Maximum-Flux-Residual          L2-NORM 
          0                 1           2             4    7     1      -0.6165149175E-01       4    7    1        -0.3227595128E+01      0.7380346960E+01
          0                 2           2             4    7     1       0.5996957125E-02       4    7    1         0.3227561810E+00      0.7378914619E+00
          0                 3           2             4    7     1      -0.4083753330E-03       4    7    1        -0.2259321013E-01      0.5164094829E-01
          0                 4           1             4    7     1       0.1624543096E-04       4    7    1         0.9238250195E-03      0.2110856196E-02

    ------------------------------------------------
       NWT REQUIRED            4 OUTER ITERATIONS 
       AND A TOTAL OF          7 INNER ITERATIONS.
    ------------------------------------------------

 OUTPUT CONTROL FOR STRESS PERIOD    7   TIME STEP    5
    PRINT BUDGET
    SAVE BUDGET
 UBDSV1 SAVING "         STORAGE" ON UNIT 102 AT TIME STEP  5, STRESS PERIOD   7
 UBDSV2 SAVING "   CONSTANT HEAD" ON UNIT 102 AT TIME STEP  5, STRESS PERIOD   7
 UBDSV1 SAVING "FLOW RIGHT FACE " ON UNIT 102 AT TIME STEP  5, STRESS PERIOD   7
 UBDSV1 SAVING "FLOW FRONT FACE " ON UNIT 102 AT TIME STEP  5, STRESS PERIOD   7

  HEAD DEP BOUNDS   PERIOD    7   STEP     5
 BOUNDARY      1   LAYER   1   ROW    13   COL     1   RATE   -0.300147    
 BOUNDARY      2   LAYER   1   ROW    14   COL     9   RATE    0.285491    



 STREAM LISTING     PERIOD      7   STEP        5

 LAYER ROW COL. STREAM  RCH.  FLOW INTO     FLOW TO   FLOW OUT OF   OVRLND.     DIRECT     STREAM       STREAM     STREAM     STREAM   STREAMBED  STREAMBED
                SEG.NO.  NO.  STRM. RCH.    AQUIFER    STRM. RCH.    RUNOFF     PRECIP       ET          HEAD       DEPTH      WIDTH   CONDCTNC.   GRADIENT

   1    1    1     1     1    8.3000E+01  4.4019E-01   8.2560E+01  0.000E+00  0.000E+00  0.000E+00  1.09478E+03  1.734E+00  2.066E+01  9.299E-02  1.578E+00
   1    2    2     1     2    8.2560E+01  6.8286E-01   8.1877E+01  0.000E+00  0.000E+00  0.000E+00  1.08979E+03  1.731E+00  2.062E+01  1.443E-01  1.577E+00
   1    3    3     1     3    8.1877E+01  5.8349E-01   8.1294E+01  0.000E+00  0.000E+00  0.000E+00  1.08415E+03  1.729E+00  2.057E+01  1.234E-01  1.576E+00
   1    3    4     1     4    8.1294E+01  5.3822E-01   8.0756E+01  0.000E+00  0.000E+00  0.000E+00  1.07913E+03  1.726E+00  2.052E+01  1.139E-01  1.575E+00
   1    4    5     2     1    7.8756E+01  4.2120E-01   7.8334E+01  0.000E+00  0.000E+00  0.000E+00  1.07433E+03  2.400E+00  1.200E+01  7.800E-02  1.800E+00
   1    5    6     2     2    7.8334E+01  3.2359E-01   7.8011E+01  0.000E+00  0.000E+00  0.000E+00  1.06890E+03  2.393E+00  1.200E+01  6.000E-02  1.798E+00
   1    6    6     2     3    7.8011E+01  3.2323E-01   7.7688E+01  0.000E+00  0.000E+00  0.000E+00  1.06418E+03  2.387E+00  1.200E+01  6.000E-02  1.796E+00
   1    7    6     2     4    7.7688E+01  3.2288E-01   7.7365E+01  0.000E+00  0.000E+00  0.000E+00  1.05946E+03  2.381E+00  1.200E+01  6.000E-02  1.794E+00
   1    8    6     2     5    7.7365E+01  3.2252E-01   7.7042E+01  0.000E+00  0.000E+00  0.000E+00  1.05473E+03  2.375E+00  1.200E+01  6.000E-02  1.792E+00
   1    3    5     3     1    2.0000E+00  2.8252E-01   1.7175E+00  0.000E+00  0.000E+00  0.000E+00  1.07555E+03  1.909E+00  9.636E+00  7.227E-02  1.955E+00
   1    3    6     3     2    1.7175E+00  2.4905E-01   1.4684E+00  0.000E+00  0.000E+00  0.000E+00  1.07264E+03  1.727E+00  8.909E+00  6.682E-02  1.864E+00
   1    3    7     3     3    1.4684E+00  1.9718E-01   1.2712E+00  0.000E+00  0.000E+00  0.000E+00  1.06987E+03  1.555E+00  8.218E+00  5.547E-02  1.777E+00
   1    4    8     3     4    1.2712E+00  2.2567E-01   1.0456E+00  0.000E+00  0.000E+00  0.000E+00  1.06682E+03  1.364E+00  7.455E+00  6.709E-02  1.682E+00
   1    5    8     3     5    1.0456E+00  1.5790E-01   8.8768E-01  0.000E+00  0.000E+00  0.000E+00  1.06362E+03  1.164E+00  6.655E+00  4.991E-02  1.582E+00
   1    6    8     3     6    8.8768E-01  5.5980E-02   8.3170E-01  0.000E+00  0.000E+00  0.000E+00  1.06158E+03  1.036E+00  6.145E+00  1.844E-02  1.518E+00
   1    5   10     4     1    1.0000E+01  9.0919E-02   9.9091E+00  0.000E+00  0.000E+00  0.000E+00  1.07836E+03  6.368E-01  1.000E+01  2.500E-02  1.212E+00
   1    5    9     4     2    9.9091E+00  1.8158E-01   9.7275E+00  0.000E+00  0.000E+00  0.000E+00  1.07154E+03  6.315E-01  1.000E+01  5.000E-02  1.211E+00
   1    6    8     4     3    9.7275E+00  1.2689E-01   9.6006E+00  0.000E+00  0.000E+00  0.000E+00  1.06381E+03  6.256E-01  1.000E+01  3.500E-02  1.209E+00
   1    6    8     5     1    1.0432E+01  2.2686E-01   1.0205E+01  0.000E+00  0.000E+00  0.000E+00  1.05868E+03  6.790E-01  1.542E+01  6.166E-02  1.226E+00
   1    7    7     5     2    1.0205E+01  2.7894E-01   9.9265E+00  0.000E+00  0.000E+00  0.000E+00  1.05417E+03  6.732E-01  1.519E+01  7.594E-02  1.224E+00
   1    8    7     5     3    9.9265E+00  1.9221E-01   9.7343E+00  0.000E+00  0.000E+00  0.000E+00  1.04992E+03  6.676E-01  1.497E+01  5.241E-02  1.223E+00
   1    8    6     5     4    9.7343E+00  1.3577E-01   9.5985E+00  0.000E+00  0.000E+00  0.000E+00  1.04691E+03  6.637E-01  1.482E+01  3.706E-02  1.221E+00
   1    9    6     6     1    8.6641E+01  3.3426E-01   8.6306E+01  0.000E+00  0.000E+00  0.000E+00  1.04530E+03  2.571E+00  1.200E+01  6.000E-02  1.857E+00
   1   10    7     6     2    8.6306E+01  3.3390E-01   8.5973E+01  0.000E+00  0.000E+00  0.000E+00  1.04075E+03  2.565E+00  1.200E+01  6.000E-02  1.855E+00
   1   11    7     6     3    8.5973E+01  3.3354E-01   8.5639E+01  0.000E+00  0.000E+00  0.000E+00  1.03620E+03  2.559E+00  1.200E+01  6.000E-02  1.853E+00
   1   12    7     6     4    8.5639E+01  3.3319E-01   8.5306E+01  0.000E+00  0.000E+00  0.000E+00  1.03164E+03  2.553E+00  1.200E+01  6.000E-02  1.851E+00
   1   13    7     6     5    8.5306E+01  2.9844E-02   8.5276E+01  0.000E+00  0.000E+00  0.000E+00  1.02846E+03  2.550E+00  1.200E+01  2.400E-02  4.145E-01
   1   14    9     7     1    1.5000E+02  1.3319E+00   1.4867E+02  0.000E+00  0.000E+00  0.000E+00  1.03987E+03  2.288E+00  5.529E+01  5.593E-01  7.938E-01
   1   13    8     7     2    1.4867E+02  1.8062E+00   1.4686E+02  0.000E+00  0.000E+00  0.000E+00  1.03478E+03  2.279E+00  5.526E+01  6.148E-01  9.793E-01
   1   13    7     7     3    1.4686E+02  1.3821E+00   1.4548E+02  0.000E+00  0.000E+00  0.000E+00  1.02969E+03  2.271E+00  5.522E+01  5.585E-01  8.249E-01
   1   13    6     8     1    2.3076E+02  1.0601E+00   2.2970E+02  0.000E+00  0.000E+00  0.000E+00  1.02518E+03  3.308E+00  4.796E+01  4.888E-01  7.230E-01
   1   13    5     8     2    2.2970E+02  2.2370E-01   2.2947E+02  0.000E+00  0.000E+00  0.000E+00  1.01893E+03  3.304E+00  4.791E+01  4.882E-01  1.527E-01
   1   13    4     8     3    2.2947E+02 -2.0979E+00   2.3157E+02  0.000E+00  0.000E+00  0.000E+00  1.01268E+03  3.309E+00  4.799E+01  4.890E+00 -1.430E-01
   1   13    3     8     4    2.3157E+02 -3.2813E+00   2.3485E+02  0.000E+00  0.000E+00  0.000E+00  1.00645E+03  3.324E+00  4.819E+01  4.911E+00 -2.227E-01
   1   13    2     8     5    2.3485E+02 -2.6428E+00   2.3749E+02  0.000E+00  0.000E+00  0.000E+00  1.00021E+03  3.340E+00  4.842E+01  4.935E+00 -1.785E-01
   1   13    1     8     6    2.3749E+02 -1.9963E+00   2.3949E+02  0.000E+00  0.000E+00  0.000E+00  9.95227E+02  3.352E+00  4.860E+01  2.972E+00 -2.239E-01



 UBDSV3 SAVING "           GW ET" ON UNIT  61 AT TIME STEP  5, STRESS PERIOD   7
 UBDSV3 SAVING "    UZF RECHARGE" ON UNIT  61 AT TIME STEP  5, STRESS PERIOD   7
 UBDSV3 SAVING " SURFACE LEAKAGE" ON UNIT  61 AT TIME STEP  5, STRESS PERIOD   7
 UBDSV3 SAVING "       HORT+DUNN" ON UNIT  61 AT TIME STEP  5, STRESS PERIOD   7
 UBDSV3 SAVING "  STORAGE CHANGE" ON UNIT  61 AT TIME STEP  5, STRESS PERIOD   7


UNSATURATED ZONE PACKAGE VOLUMETRIC BUDGET FOR  TIME STEP     5 STRESS PERIOD    7
  ------------------------------------------------------------------------------



     CUMULATIVE VOLUMES      L**3       RATES FOR THIS TIME STEP      L**3/T
     ------------------                 ------------------------

           IN:                                      IN:
           ---                                      ---
        INFILTRATION =    50868764.3895          INFILTRATION =          23.3175

          OUT:                                     OUT:
          ----                                     ----
              UZF ET =    50794575.5513                UZF ET =          23.3175
        UZF RECHARGE =       73224.0000          UZF RECHARGE =       0.0000E+00

            IN - OUT =         964.8382              IN - OUT =       4.2915E-06

          STORAGE:                                 STORAGE:
          --------                                 --------
      STORAGE CHANGE =         964.8972        STORAGE CHANGE =       4.2634E-06

 PERCENT DISCREPANCY IS DIFFERENCE BETWEEN IN-OUT MINUS CHANGE IN STORAGE
 DIVIDED BY THE AVERAGE OF IN AND OUT TIMES 100

 PERCENT DISCREPANCY =           0.00     PERCENT DISCREPANCY =           0.00






 

            AG WELLS      PERIOD    7   STEP   5
 AG WELL      1   LAYER   1   ROW     6   COL     4   RATE    -3.74500    
 AG WELL      2   LAYER   1   ROW     6   COL     5   RATE    -3.74500    
 AG WELL      3   LAYER   1   ROW     7   COL     4   RATE    -3.74500    
 AG WELL      4   LAYER   1   ROW     7   COL     5   RATE    -3.74500    
 AG WELL      5   LAYER   1   ROW     8   COL     4   RATE    -3.74500    
 AG WELL      6   LAYER   1   ROW     8   COL     5   RATE    -3.74500    
 
 

        GW IRRIGATION     PERIOD    7   STEP   5
 AG WELL      1   ROW     6   COL     4   RATE     3.74500    
 AG WELL      2   ROW     6   COL     5   RATE     3.74500    
 AG WELL      3   ROW     7   COL     4   RATE     3.74500    
 AG WELL      4   ROW     7   COL     5   RATE     3.74500    
 AG WELL      5   ROW     8   COL     4   RATE     3.74500    
 AG WELL      6   ROW     8   COL     5   RATE     3.74500    
 
1
  VOLUMETRIC BUDGET FOR AGRICULTURAL FIELDS AT  END OF TIME STEP    5, STRESS PERIOD   7
  ------------------------------------------------------------------------------

     CUMULATIVE VOLUMES      L**3       RATES FOR THIS TIME STEP      L**3/T
     ------------------                 ------------------------

           IN:                                      IN:
           ---                                      ---
               AG WELLS  =    39279432.0000                 AG WELLS  =          22.4700
      DIVERSION SEGMENTS =           0.0000        DIVERSION SEGMENTS =           0.0000
           GW IRRIGATION =           0.0000             GW IRRIGATION =           0.0000
           SW IRRIGATION =           0.0000             SW IRRIGATION =           0.0000
        SYSTEM LOSSES GW =           0.0000          SYSTEM LOSSES GW =           0.0000
        SYSTEM LOSSES SW =           0.0000          SYSTEM LOSSES SW =           0.0000

                TOTAL IN =    39279432.0000                  TOTAL IN =          22.4700

          OUT:                                     OUT:
          ----                                     ----
               AG WELLS  =           0.0000                 AG WELLS  =           0.0000
      DIVERSION SEGMENTS =           0.0000        DIVERSION SEGMENTS =           0.0000
           GW IRRIGATION =    39279432.0000             GW IRRIGATION =          22.4700
           SW IRRIGATION =           0.0000             SW IRRIGATION =           0.0000
        SYSTEM LOSSES GW =           0.0000          SYSTEM LOSSES GW =           0.0000
        SYSTEM LOSSES SW =           0.0000          SYSTEM LOSSES SW =           0.0000

               TOTAL OUT =    39279432.0000                 TOTAL OUT =          22.4700

                IN - OUT =           0.0000                  IN - OUT =           0.0000

     PERCENT DISCREPANCY =           0.00         PERCENT DISCREPANCY =           0.00



1
  VOLUMETRIC BUDGET FOR ENTIRE MODEL AT END OF TIME STEP    5, STRESS PERIOD   7
  ------------------------------------------------------------------------------

     CUMULATIVE VOLUMES      L**3       RATES FOR THIS TIME STEP      L**3/T
     ------------------                 ------------------------

           IN:                                      IN:
           ---                                      ---
             STORAGE     =    46421356.0000               STORAGE     =          22.7604
       CONSTANT HEAD     =           0.0000         CONSTANT HEAD     =           0.0000
     HEAD DEP BOUNDS     =     3903409.5000       HEAD DEP BOUNDS     =           0.2855
      STREAM LEAKAGE     =   172600848.0000        STREAM LEAKAGE     =          13.5284
        UZF RECHARGE     =       73223.9531          UZF RECHARGE     =           0.0000
               GW ET     =           0.0000                 GW ET     =           0.0000
     SURFACE LEAKAGE     =           0.0000       SURFACE LEAKAGE     =           0.0000
           AG WELLS      =           0.0000             AG WELLS      =           0.0000

                TOTAL IN =   222998832.0000                  TOTAL IN =          36.5743

          OUT:                                     OUT:
          ----                                     ----
             STORAGE     =    37712496.0000               STORAGE     =           2.0610
       CONSTANT HEAD     =           0.0000         CONSTANT HEAD     =           0.0000
     HEAD DEP BOUNDS     =     4016779.5000       HEAD DEP BOUNDS     =           0.3001
      STREAM LEAKAGE     =   139079184.0000        STREAM LEAKAGE     =          10.0183
        UZF RECHARGE     =           0.0000          UZF RECHARGE     =           0.0000
               GW ET     =     2913454.2500                 GW ET     =           1.7249
     SURFACE LEAKAGE     =           0.0000       SURFACE LEAKAGE     =           0.0000
           AG WELLS      =    39279432.0000             AG WELLS      =          22.4700

               TOTAL OUT =   223001344.0000                 TOTAL OUT =          36.5744

                IN - OUT =       -2512.0000                  IN - OUT =      -6.8665E-05

     PERCENT DISCREPANCY =          -0.00         PERCENT DISCREPANCY =          -0.00






         TIME SUMMARY AT END OF TIME STEP    5 IN STRESS PERIOD    7
                    SECONDS     MINUTES      HOURS       DAYS        YEARS
                    -----------------------------------------------------------
   TIME STEP LENGTH  87667.      1461.1      24.352      1.0147     2.77799E-03
 STRESS PERIOD TIME 4.38333E+05  7305.6      121.76      5.0733     1.38899E-02
         TOTAL TIME 1.36747E+07 2.27912E+05  3798.5      158.27     0.43333    
1
 
 SOLVING FOR HEAD 
                                                   Max.-Head-Change                         Max.-Flux-Residual
  Residual-Control   Outer-Iter.   Inner-Iter.     Column Row Layer    Maximum-Head-Change  Column Row Layer    Maximum-Flux-Residual          L2-NORM 
          0                 1           2             4    7     1      -0.6117326847E-01       4    7    1        -0.3203396163E+01      0.7268495298E+01
          0                 2           2             4    7     1       0.5950437712E-02       4    7    1         0.3203361898E+00      0.7267476017E+00
          0                 3           2             4    7     1      -0.4052075464E-03       4    7    1        -0.2242381156E-01      0.5086465902E-01
          0                 4           1             4    7     1       0.1611938166E-04       4    7    1         0.9168966212E-03      0.2079459856E-02

    ------------------------------------------------
       NWT REQUIRED            4 OUTER ITERATIONS 
       AND A TOTAL OF          7 INNER ITERATIONS.
    ------------------------------------------------

 NO OUTPUT CONTROL FOR STRESS PERIOD    7   TIME STEP    6
 
 SOLVING FOR HEAD 
                                                   Max.-Head-Change                         Max.-Flux-Residual
  Residual-Control   Outer-Iter.   Inner-Iter.     Column Row Layer    Maximum-Head-Change  Column Row Layer    Maximum-Flux-Residual          L2-NORM 
          0                 1           2             4    7     1      -0.6068362473E-01       4    7    1        -0.3178525826E+01      0.7164366546E+01
          0                 2           2             4    7     1       0.5902807616E-02       4    7    1         0.3178490763E+00      0.7163632123E+00
          0                 3           2             4    7     1      -0.4019641241E-03       4    7    1        -0.2224971428E-01      0.5014007816E-01
          0                 4           1             4    7     1       0.1599032293E-04       4    7    1         0.9097760299E-03      0.2049740517E-02

    ------------------------------------------------
       NWT REQUIRED            4 OUTER ITERATIONS 
       AND A TOTAL OF          7 INNER ITERATIONS.
    ------------------------------------------------

 NO OUTPUT CONTROL FOR STRESS PERIOD    7   TIME STEP    7
 
 SOLVING FOR HEAD 
                                                   Max.-Head-Change                         Max.-Flux-Residual
  Residual-Control   Outer-Iter.   Inner-Iter.     Column Row Layer    Maximum-Head-Change  Column Row Layer    Maximum-Flux-Residual          L2-NORM 
          0                 1           2             4    7     1      -0.6018453783E-01       4    7    1        -0.3153092948E+01      0.7066528328E+01
          0                 2           2             4    7     1       0.5854259155E-02       4    7    1         0.3153057221E+00      0.7065992833E+00
          0                 3           2             4    7     1      -0.3986581627E-03       4    7    1        -0.2207168004E-01      0.4945838103E-01
          0                 4           1             4    7     1       0.1585877560E-04       4    7    1         0.9024944115E-03      0.2022007431E-02

    ------------------------------------------------
       NWT REQUIRED            4 OUTER ITERATIONS 
       AND A TOTAL OF          7 INNER ITERATIONS.
    ------------------------------------------------

 NO OUTPUT CONTROL FOR STRESS PERIOD    7   TIME STEP    8
 
 SOLVING FOR HEAD 
                                                   Max.-Head-Change                         Max.-Flux-Residual
  Residual-Control   Outer-Iter.   Inner-Iter.     Column Row Layer    Maximum-Head-Change  Column Row Layer    Maximum-Flux-Residual          L2-NORM 
          0                 1           2             4    7     1      -0.5967705329E-01       4    7    1        -0.3127155665E+01      0.6973896909E+01
          0                 2           2             4    7     1       0.5804894014E-02       4    7    1         0.3127119399E+00      0.6973498867E+00
          0                 3           2             4    7     1      -0.3952965872E-03       4    7    1        -0.2189011573E-01      0.4881210342E-01
          0                 4           1             4    7     1       0.1572501506E-04       4    7    1         0.8950684164E-03      0.1995618991E-02

    ------------------------------------------------
       NWT REQUIRED            4 OUTER ITERATIONS 
       AND A TOTAL OF          7 INNER ITERATIONS.
    ------------------------------------------------

 NO OUTPUT CONTROL FOR STRESS PERIOD    7   TIME STEP    9
 
 SOLVING FOR HEAD 
                                                   Max.-Head-Change                         Max.-Flux-Residual
  Residual-Control   Outer-Iter.   Inner-Iter.     Column Row Layer    Maximum-Head-Change  Column Row Layer    Maximum-Flux-Residual          L2-NORM 
          0                 1           2             4    7     1      -0.5916268780E-01       4    7    1        -0.3100797772E+01      0.6885732014E+01
          0                 2           2             4    7     1       0.5754859709E-02       4    7    1         0.3100761080E+00      0.6885431826E+00
          0                 3           2             4    7     1      -0.3918894421E-03       4    7    1        -0.2170560781E-01      0.4819659357E-01
          0                 4           1             4    7     1       0.1558944195E-04       4    7    1         0.8875220433E-03      0.1970524903E-02

    ------------------------------------------------
       NWT REQUIRED            4 OUTER ITERATIONS 
       AND A TOTAL OF          7 INNER ITERATIONS.
    ------------------------------------------------

 OUTPUT CONTROL FOR STRESS PERIOD    7   TIME STEP   10
    PRINT BUDGET
    SAVE BUDGET
 UBDSV1 SAVING "         STORAGE" ON UNIT 102 AT TIME STEP 10, STRESS PERIOD   7
 UBDSV2 SAVING "   CONSTANT HEAD" ON UNIT 102 AT TIME STEP 10, STRESS PERIOD   7
 UBDSV1 SAVING "FLOW RIGHT FACE " ON UNIT 102 AT TIME STEP 10, STRESS PERIOD   7
 UBDSV1 SAVING "FLOW FRONT FACE " ON UNIT 102 AT TIME STEP 10, STRESS PERIOD   7

  HEAD DEP BOUNDS   PERIOD    7   STEP    10
 BOUNDARY      1   LAYER   1   ROW    13   COL     1   RATE   -0.300044    
 BOUNDARY      2   LAYER   1   ROW    14   COL     9   RATE    0.285490    



 STREAM LISTING     PERIOD      7   STEP       10

 LAYER ROW COL. STREAM  RCH.  FLOW INTO     FLOW TO   FLOW OUT OF   OVRLND.     DIRECT     STREAM       STREAM     STREAM     STREAM   STREAMBED  STREAMBED
                SEG.NO.  NO.  STRM. RCH.    AQUIFER    STRM. RCH.    RUNOFF     PRECIP       ET          HEAD       DEPTH      WIDTH   CONDCTNC.   GRADIENT

   1    1    1     1     1    8.3000E+01  4.4019E-01   8.2560E+01  0.000E+00  0.000E+00  0.000E+00  1.09478E+03  1.734E+00  2.066E+01  9.299E-02  1.578E+00
   1    2    2     1     2    8.2560E+01  6.8286E-01   8.1877E+01  0.000E+00  0.000E+00  0.000E+00  1.08979E+03  1.731E+00  2.062E+01  1.443E-01  1.577E+00
   1    3    3     1     3    8.1877E+01  5.8349E-01   8.1294E+01  0.000E+00  0.000E+00  0.000E+00  1.08415E+03  1.729E+00  2.057E+01  1.234E-01  1.576E+00
   1    3    4     1     4    8.1294E+01  5.3822E-01   8.0756E+01  0.000E+00  0.000E+00  0.000E+00  1.07913E+03  1.726E+00  2.052E+01  1.139E-01  1.575E+00
   1    4    5     2     1    7.8756E+01  4.2120E-01   7.8334E+01  0.000E+00  0.000E+00  0.000E+00  1.07433E+03  2.400E+00  1.200E+01  7.800E-02  1.800E+00
   1    5    6     2     2    7.8334E+01  3.2359E-01   7.8011E+01  0.000E+00  0.000E+00  0.000E+00  1.06890E+03  2.393E+00  1.200E+01  6.000E-02  1.798E+00
   1    6    6     2     3    7.8011E+01  3.2323E-01   7.7688E+01  0.000E+00  0.000E+00  0.000E+00  1.06418E+03  2.387E+00  1.200E+01  6.000E-02  1.796E+00
   1    7    6     2     4    7.7688E+01  3.2288E-01   7.7365E+01  0.000E+00  0.000E+00  0.000E+00  1.05946E+03  2.381E+00  1.200E+01  6.000E-02  1.794E+00
   1    8    6     2     5    7.7365E+01  3.2252E-01   7.7042E+01  0.000E+00  0.000E+00  0.000E+00  1.05473E+03  2.375E+00  1.200E+01  6.000E-02  1.792E+00
   1    3    5     3     1    2.0000E+00  2.8252E-01   1.7175E+00  0.000E+00  0.000E+00  0.000E+00  1.07555E+03  1.909E+00  9.636E+00  7.227E-02  1.955E+00
   1    3    6     3     2    1.7175E+00  2.4905E-01   1.4684E+00  0.000E+00  0.000E+00  0.000E+00  1.07264E+03  1.727E+00  8.909E+00  6.682E-02  1.864E+00
   1    3    7     3     3    1.4684E+00  1.9718E-01   1.2712E+00  0.000E+00  0.000E+00  0.000E+00  1.06987E+03  1.555E+00  8.218E+00  5.547E-02  1.777E+00
   1    4    8     3     4    1.2712E+00  2.2567E-01   1.0456E+00  0.000E+00  0.000E+00  0.000E+00  1.06682E+03  1.364E+00  7.455E+00  6.709E-02  1.682E+00
   1    5    8     3     5    1.0456E+00  1.5790E-01   8.8768E-01  0.000E+00  0.000E+00  0.000E+00  1.06362E+03  1.164E+00  6.655E+00  4.991E-02  1.582E+00
   1    6    8     3     6    8.8768E-01  5.5980E-02   8.3170E-01  0.000E+00  0.000E+00  0.000E+00  1.06158E+03  1.036E+00  6.145E+00  1.844E-02  1.518E+00
   1    5   10     4     1    1.0000E+01  9.0919E-02   9.9091E+00  0.000E+00  0.000E+00  0.000E+00  1.07836E+03  6.368E-01  1.000E+01  2.500E-02  1.212E+00
   1    5    9     4     2    9.9091E+00  1.8158E-01   9.7275E+00  0.000E+00  0.000E+00  0.000E+00  1.07154E+03  6.315E-01  1.000E+01  5.000E-02  1.211E+00
   1    6    8     4     3    9.7275E+00  1.2689E-01   9.6006E+00  0.000E+00  0.000E+00  0.000E+00  1.06381E+03  6.256E-01  1.000E+01  3.500E-02  1.209E+00
   1    6    8     5     1    1.0432E+01  2.2686E-01   1.0205E+01  0.000E+00  0.000E+00  0.000E+00  1.05868E+03  6.790E-01  1.542E+01  6.166E-02  1.226E+00
   1    7    7     5     2    1.0205E+01  2.7894E-01   9.9265E+00  0.000E+00  0.000E+00  0.000E+00  1.05417E+03  6.732E-01  1.519E+01  7.594E-02  1.224E+00
   1    8    7     5     3    9.9265E+00  1.9221E-01   9.7343E+00  0.000E+00  0.000E+00  0.000E+00  1.04992E+03  6.676E-01  1.497E+01  5.241E-02  1.223E+00
   1    8    6     5     4    9.7343E+00  1.3577E-01   9.5985E+00  0.000E+00  0.000E+00  0.000E+00  1.04691E+03  6.637E-01  1.482E+01  3.706E-02  1.221E+00
   1    9    6     6     1    8.6641E+01  3.3426E-01   8.6306E+01  0.000E+00  0.000E+00  0.000E+00  1.04530E+03  2.571E+00  1.200E+01  6.000E-02  1.857E+00
   1   10    7     6     2    8.6306E+01  3.3390E-01   8.5973E+01  0.000E+00  0.000E+00  0.000E+00  1.04075E+03  2.565E+00  1.200E+01  6.000E-02  1.855E+00
   1   11    7     6     3    8.5973E+01  3.3354E-01   8.5639E+01  0.000E+00  0.000E+00  0.000E+00  1.03620E+03  2.559E+00  1.200E+01  6.000E-02  1.853E+00
   1   12    7     6     4    8.5639E+01  3.3319E-01   8.5306E+01  0.000E+00  0.000E+00  0.000E+00  1.03164E+03  2.553E+00  1.200E+01  6.000E-02  1.851E+00
   1   13    7     6     5    8.5306E+01  2.9753E-02   8.5276E+01  0.000E+00  0.000E+00  0.000E+00  1.02846E+03  2.550E+00  1.200E+01  2.400E-02  4.132E-01
   1   14    9     7     1    1.5000E+02  1.3319E+00   1.4867E+02  0.000E+00  0.000E+00  0.000E+00  1.03987E+03  2.288E+00  5.529E+01  5.593E-01  7.938E-01
   1   13    8     7     2    1.4867E+02  1.8054E+00   1.4686E+02  0.000E+00  0.000E+00  0.000E+00  1.03478E+03  2.279E+00  5.526E+01  6.148E-01  9.789E-01
   1   13    7     7     3    1.4686E+02  1.3800E+00   1.4548E+02  0.000E+00  0.000E+00  0.000E+00  1.02969E+03  2.271E+00  5.522E+01  5.585E-01  8.237E-01
   1   13    6     8     1    2.3076E+02  1.0581E+00   2.2970E+02  0.000E+00  0.000E+00  0.000E+00  1.02518E+03  3.308E+00  4.796E+01  4.888E-01  7.216E-01
   1   13    5     8     2    2.2970E+02  2.2293E-01   2.2948E+02  0.000E+00  0.000E+00  0.000E+00  1.01893E+03  3.304E+00  4.791E+01  4.882E-01  1.522E-01
   1   13    4     8     3    2.2948E+02 -2.0110E+00   2.3149E+02  0.000E+00  0.000E+00  0.000E+00  1.01268E+03  3.309E+00  4.798E+01  4.890E+00 -1.371E-01
   1   13    3     8     4    2.3149E+02 -3.1903E+00   2.3468E+02  0.000E+00  0.000E+00  0.000E+00  1.00645E+03  3.323E+00  4.819E+01  4.910E+00 -2.166E-01
   1   13    2     8     5    2.3468E+02 -2.5909E+00   2.3727E+02  0.000E+00  0.000E+00  0.000E+00  1.00021E+03  3.339E+00  4.841E+01  4.933E+00 -1.751E-01
   1   13    1     8     6    2.3727E+02 -1.9910E+00   2.3926E+02  0.000E+00  0.000E+00  0.000E+00  9.95226E+02  3.351E+00  4.858E+01  2.971E+00 -2.234E-01



 UBDSV3 SAVING "           GW ET" ON UNIT  61 AT TIME STEP 10, STRESS PERIOD   7
 UBDSV3 SAVING "    UZF RECHARGE" ON UNIT  61 AT TIME STEP 10, STRESS PERIOD   7
 UBDSV3 SAVING " SURFACE LEAKAGE" ON UNIT  61 AT TIME STEP 10, STRESS PERIOD   7
 UBDSV3 SAVING "       HORT+DUNN" ON UNIT  61 AT TIME STEP 10, STRESS PERIOD   7
 UBDSV3 SAVING "  STORAGE CHANGE" ON UNIT  61 AT TIME STEP 10, STRESS PERIOD   7


UNSATURATED ZONE PACKAGE VOLUMETRIC BUDGET FOR  TIME STEP    10 STRESS PERIOD    7
  ------------------------------------------------------------------------------



     CUMULATIVE VOLUMES      L**3       RATES FOR THIS TIME STEP      L**3/T
     ------------------                 ------------------------

           IN:                                      IN:
           ---                                      ---
        INFILTRATION =    61089603.7439          INFILTRATION =          23.3175

          OUT:                                     OUT:
          ----                                     ----
              UZF ET =    61015413.0307                UZF ET =          23.3175
        UZF RECHARGE =       73224.0000          UZF RECHARGE =       0.0000E+00

            IN - OUT =         966.7132              IN - OUT =       4.2915E-06

          STORAGE:                                 STORAGE:
          --------                                 --------
      STORAGE CHANGE =         966.7664        STORAGE CHANGE =       4.2664E-06

 PERCENT DISCREPANCY IS DIFFERENCE BETWEEN IN-OUT MINUS CHANGE IN STORAGE
 DIVIDED BY THE AVERAGE OF IN AND OUT TIMES 100

 PERCENT DISCREPANCY =           0.00     PERCENT DISCREPANCY =           0.00






 

            AG WELLS      PERIOD    7   STEP  10
 AG WELL      1   LAYER   1   ROW     6   COL     4   RATE    -3.74500    
 AG WELL      2   LAYER   1   ROW     6   COL     5   RATE    -3.74500    
 AG WELL      3   LAYER   1   ROW     7   COL     4   RATE    -3.74500    
 AG WELL      4   LAYER   1   ROW     7   COL     5   RATE    -3.74500    
 AG WELL      5   LAYER   1   ROW     8   COL     4   RATE    -3.74500    
 AG WELL      6   LAYER   1   ROW     8   COL     5   RATE    -3.74500    
 
 

        GW IRRIGATION     PERIOD    7   STEP  10
 AG WELL      1   ROW     6   COL     4   RATE     3.74500    
 AG WELL      2   ROW     6   COL     5   RATE     3.74500    
 AG WELL      3   ROW     7   COL     4   RATE     3.74500    
 AG WELL      4   ROW     7   COL     5   RATE     3.74500    
 AG WELL      5   ROW     8   COL     4   RATE     3.74500    
 AG WELL      6   ROW     8   COL     5   RATE     3.74500    
 
1
  VOLUMETRIC BUDGET FOR AGRICULTURAL FIELDS AT  END OF TIME STEP   10, STRESS PERIOD   7
  ------------------------------------------------------------------------------

     CUMULATIVE VOLUMES      L**3       RATES FOR THIS TIME STEP      L**3/T
     ------------------                 ------------------------

           IN:                                      IN:
           ---                                      ---
               AG WELLS  =    49128792.0000                 AG WELLS  =          22.4700
      DIVERSION SEGMENTS =           0.0000        DIVERSION SEGMENTS =           0.0000
           GW IRRIGATION =           0.0000             GW IRRIGATION =           0.0000
           SW IRRIGATION =           0.0000             SW IRRIGATION =           0.0000
        SYSTEM LOSSES GW =           0.0000          SYSTEM LOSSES GW =           0.0000
        SYSTEM LOSSES SW =           0.0000          SYSTEM LOSSES SW =           0.0000

                TOTAL IN =    49128792.0000                  TOTAL IN =          22.4700

          OUT:                                     OUT:
          ----                                     ----
               AG WELLS  =           0.0000                 AG WELLS  =           0.0000
      DIVERSION SEGMENTS =           0.0000        DIVERSION SEGMENTS =           0.0000
           GW IRRIGATION =    49128792.0000             GW IRRIGATION =          22.4700
           SW IRRIGATION =           0.0000             SW IRRIGATION =           0.0000
        SYSTEM LOSSES GW =           0.0000          SYSTEM LOSSES GW =           0.0000
        SYSTEM LOSSES SW =           0.0000          SYSTEM LOSSES SW =           0.0000

               TOTAL OUT =    49128792.0000                 TOTAL OUT =          22.4700

                IN - OUT =           0.0000                  IN - OUT =           0.0000

     PERCENT DISCREPANCY =           0.00         PERCENT DISCREPANCY =           0.00



1
  VOLUMETRIC BUDGET FOR ENTIRE MODEL AT END OF TIME STEP   10, STRESS PERIOD   7
  ------------------------------------------------------------------------------

     CUMULATIVE VOLUMES      L**3       RATES FOR THIS TIME STEP      L**3/T
     ------------------                 ------------------------

           IN:                                      IN:
           ---                                      ---
             STORAGE     =    56216132.0000               STORAGE     =          22.1461
       CONSTANT HEAD     =           0.0000         CONSTANT HEAD     =           0.0000
     HEAD DEP BOUNDS     =     4028549.5000       HEAD DEP BOUNDS     =           0.2855
      STREAM LEAKAGE     =   178529248.0000        STREAM LEAKAGE     =          13.5226
        UZF RECHARGE     =       73223.9531          UZF RECHARGE     =           0.0000
               GW ET     =           0.0000                 GW ET     =           0.0000
     SURFACE LEAKAGE     =           0.0000       SURFACE LEAKAGE     =           0.0000
           AG WELLS      =           0.0000             AG WELLS      =           0.0000

                TOTAL IN =   238847136.0000                  TOTAL IN =          35.9542

          OUT:                                     OUT:
          ----                                     ----
             STORAGE     =    38584564.0000               STORAGE     =           1.9533
       CONSTANT HEAD     =           0.0000         CONSTANT HEAD     =           0.0000
     HEAD DEP BOUNDS     =     4148316.2500       HEAD DEP BOUNDS     =           0.3000
      STREAM LEAKAGE     =   143401584.0000        STREAM LEAKAGE     =           9.7833
        UZF RECHARGE     =           0.0000          UZF RECHARGE     =           0.0000
               GW ET     =     3586412.7500                 GW ET     =           1.4476
     SURFACE LEAKAGE     =           0.0000       SURFACE LEAKAGE     =           0.0000
           AG WELLS      =    49128792.0000             AG WELLS      =          22.4700

               TOTAL OUT =   238849664.0000                 TOTAL OUT =          35.9543

                IN - OUT =       -2528.0000                  IN - OUT =      -6.8665E-05

     PERCENT DISCREPANCY =          -0.00         PERCENT DISCREPANCY =          -0.00






         TIME SUMMARY AT END OF TIME STEP   10 IN STRESS PERIOD    7
                    SECONDS     MINUTES      HOURS       DAYS        YEARS
                    -----------------------------------------------------------
   TIME STEP LENGTH  87667.      1461.1      24.352      1.0147     2.77799E-03
 STRESS PERIOD TIME 8.76667E+05  14611.      243.52      10.147     2.77799E-02
         TOTAL TIME 1.41131E+07 2.35218E+05  3920.3      163.35     0.44722    
1
 
 SOLVING FOR HEAD 
                                                   Max.-Head-Change                         Max.-Flux-Residual
  Residual-Control   Outer-Iter.   Inner-Iter.     Column Row Layer    Maximum-Head-Change  Column Row Layer    Maximum-Flux-Residual          L2-NORM 
          0                 1           2             4    7     1      -0.5864202987E-01       4    7    1        -0.3074053541E+01      0.6801446479E+01
          0                 2           2             4    7     1       0.5704213472E-02       4    7    1         0.3074016527E+00      0.6801214937E+00
          0                 3           2             4    7     1      -0.3884406249E-03       4    7    1        -0.2151839617E-01      0.4760764300E-01
          0                 4           1             4    7     1       0.1545220985E-04       4    7    1         0.8798650556E-03      0.1946521879E-02

    ------------------------------------------------
       NWT REQUIRED            4 OUTER ITERATIONS 
       AND A TOTAL OF          7 INNER ITERATIONS.
    ------------------------------------------------

 NO OUTPUT CONTROL FOR STRESS PERIOD    7   TIME STEP   11
 
 SOLVING FOR HEAD 
                                                   Max.-Head-Change                         Max.-Flux-Residual
  Residual-Control   Outer-Iter.   Inner-Iter.     Column Row Layer    Maximum-Head-Change  Column Row Layer    Maximum-Flux-Residual          L2-NORM 
          0                 1           2             4    7     1      -0.5811671830E-01       4    7    1        -0.3047012640E+01      0.6720624661E+01
          0                 2           2             4    7     1       0.5653114700E-02       4    7    1         0.3046975399E+00      0.6720441900E+00
          0                 3           2             4    7     1      -0.3849609908E-03       4    7    1        -0.2132910841E-01      0.4704265454E-01
          0                 4           1             4    7     1       0.1531375210E-04       4    7    1         0.8721231875E-03      0.1923421392E-02

    ------------------------------------------------
       NWT REQUIRED            4 OUTER ITERATIONS 
       AND A TOTAL OF          7 INNER ITERATIONS.
    ------------------------------------------------

 NO OUTPUT CONTROL FOR STRESS PERIOD    7   TIME STEP   12
 
 SOLVING FOR HEAD 
                                                   Max.-Head-Change                         Max.-Flux-Residual
  Residual-Control   Outer-Iter.   Inner-Iter.     Column Row Layer    Maximum-Head-Change  Column Row Layer    Maximum-Flux-Residual          L2-NORM 
          0                 1           2             4    7     1      -0.5758746151E-01       4    7    1        -0.3019715679E+01      0.6642916783E+01
          0                 2           2             4    7     1       0.5601632289E-02       4    7    1         0.3019678296E+00      0.6642768911E+00
          0                 3           2             4    7     1      -0.3814552306E-03       4    7    1        -0.2113802872E-01      0.4649921468E-01
          0                 4           1             4    7     1       0.1517425452E-04       4    7    1         0.8643080018E-03      0.1901178879E-02

    ------------------------------------------------
       NWT REQUIRED            4 OUTER ITERATIONS 
       AND A TOTAL OF          7 INNER ITERATIONS.
    ------------------------------------------------

 NO OUTPUT CONTROL FOR STRESS PERIOD    7   TIME STEP   13
 
 SOLVING FOR HEAD 
                                                   Max.-Head-Change                         Max.-Flux-Residual
  Residual-Control   Outer-Iter.   Inner-Iter.     Column Row Layer    Maximum-Head-Change  Column Row Layer    Maximum-Flux-Residual          L2-NORM 
          0                 1           2             4    7     1      -0.5705519429E-01       4    7    1        -0.2992214175E+01      0.6568076708E+01
          0                 2           2             4    7     1       0.5549857160E-02       4    7    1         0.2992176729E+00      0.6567955375E+00
          0                 3           2             4    7     1      -0.3779295373E-03       4    7    1        -0.2094551776E-01      0.4597586300E-01
          0                 4           1             4    7     1       0.1503396394E-04       4    7    1         0.8564342966E-03      0.1879827305E-02

    ------------------------------------------------
       NWT REQUIRED            4 OUTER ITERATIONS 
       AND A TOTAL OF          7 INNER ITERATIONS.
    ------------------------------------------------

 NO OUTPUT CONTROL FOR STRESS PERIOD    7   TIME STEP   14
 
 SOLVING FOR HEAD 
                                                   Max.-Head-Change                         Max.-Flux-Residual
  Residual-Control   Outer-Iter.   Inner-Iter.     Column Row Layer    Maximum-Head-Change  Column Row Layer    Maximum-Flux-Residual          L2-NORM 
          0                 1           2             4    7     1      -0.5652077089E-01       4    7    1        -0.2964556598E+01      0.6495869595E+01
          0                 2           2             4    7     1       0.5497872394E-02       4    7    1         0.2964519159E+00      0.6495765700E+00
          0                 3           2             4    7     1      -0.3743895666E-03       4    7    1        -0.2075191466E-01      0.4547059101E-01
          0                 4           1             4    7     1       0.1489310509E-04       4    7    1         0.8485159187E-03      0.1859166414E-02

    ------------------------------------------------
       NWT REQUIRED            4 OUTER ITERATIONS 
       AND A TOTAL OF          7 INNER ITERATIONS.
    ------------------------------------------------

 OUTPUT CONTROL FOR STRESS PERIOD    7   TIME STEP   15
    PRINT BUDGET
    SAVE BUDGET
 UBDSV1 SAVING "         STORAGE" ON UNIT 102 AT TIME STEP 15, STRESS PERIOD   7
 UBDSV2 SAVING "   CONSTANT HEAD" ON UNIT 102 AT TIME STEP 15, STRESS PERIOD   7
 UBDSV1 SAVING "FLOW RIGHT FACE " ON UNIT 102 AT TIME STEP 15, STRESS PERIOD   7
 UBDSV1 SAVING "FLOW FRONT FACE " ON UNIT 102 AT TIME STEP 15, STRESS PERIOD   7

  HEAD DEP BOUNDS   PERIOD    7   STEP    15
 BOUNDARY      1   LAYER   1   ROW    13   COL     1   RATE   -0.299953    
 BOUNDARY      2   LAYER   1   ROW    14   COL     9   RATE    0.285489    



 STREAM LISTING     PERIOD      7   STEP       15

 LAYER ROW COL. STREAM  RCH.  FLOW INTO     FLOW TO   FLOW OUT OF   OVRLND.     DIRECT     STREAM       STREAM     STREAM     STREAM   STREAMBED  STREAMBED
                SEG.NO.  NO.  STRM. RCH.    AQUIFER    STRM. RCH.    RUNOFF     PRECIP       ET          HEAD       DEPTH      WIDTH   CONDCTNC.   GRADIENT

   1    1    1     1     1    8.3000E+01  4.4019E-01   8.2560E+01  0.000E+00  0.000E+00  0.000E+00  1.09478E+03  1.734E+00  2.066E+01  9.299E-02  1.578E+00
   1    2    2     1     2    8.2560E+01  6.8286E-01   8.1877E+01  0.000E+00  0.000E+00  0.000E+00  1.08979E+03  1.731E+00  2.062E+01  1.443E-01  1.577E+00
   1    3    3     1     3    8.1877E+01  5.8349E-01   8.1294E+01  0.000E+00  0.000E+00  0.000E+00  1.08415E+03  1.729E+00  2.057E+01  1.234E-01  1.576E+00
   1    3    4     1     4    8.1294E+01  5.3822E-01   8.0756E+01  0.000E+00  0.000E+00  0.000E+00  1.07913E+03  1.726E+00  2.052E+01  1.139E-01  1.575E+00
   1    4    5     2     1    7.8756E+01  4.2120E-01   7.8334E+01  0.000E+00  0.000E+00  0.000E+00  1.07433E+03  2.400E+00  1.200E+01  7.800E-02  1.800E+00
   1    5    6     2     2    7.8334E+01  3.2359E-01   7.8011E+01  0.000E+00  0.000E+00  0.000E+00  1.06890E+03  2.393E+00  1.200E+01  6.000E-02  1.798E+00
   1    6    6     2     3    7.8011E+01  3.2323E-01   7.7688E+01  0.000E+00  0.000E+00  0.000E+00  1.06418E+03  2.387E+00  1.200E+01  6.000E-02  1.796E+00
   1    7    6     2     4    7.7688E+01  3.2288E-01   7.7365E+01  0.000E+00  0.000E+00  0.000E+00  1.05946E+03  2.381E+00  1.200E+01  6.000E-02  1.794E+00
   1    8    6     2     5    7.7365E+01  3.2252E-01   7.7042E+01  0.000E+00  0.000E+00  0.000E+00  1.05473E+03  2.375E+00  1.200E+01  6.000E-02  1.792E+00
   1    3    5     3     1    2.0000E+00  2.8252E-01   1.7175E+00  0.000E+00  0.000E+00  0.000E+00  1.07555E+03  1.909E+00  9.636E+00  7.227E-02  1.955E+00
   1    3    6     3     2    1.7175E+00  2.4905E-01   1.4684E+00  0.000E+00  0.000E+00  0.000E+00  1.07264E+03  1.727E+00  8.909E+00  6.682E-02  1.864E+00
   1    3    7     3     3    1.4684E+00  1.9718E-01   1.2712E+00  0.000E+00  0.000E+00  0.000E+00  1.06987E+03  1.555E+00  8.218E+00  5.547E-02  1.777E+00
   1    4    8     3     4    1.2712E+00  2.2567E-01   1.0456E+00  0.000E+00  0.000E+00  0.000E+00  1.06682E+03  1.364E+00  7.455E+00  6.709E-02  1.682E+00
   1    5    8     3     5    1.0456E+00  1.5790E-01   8.8768E-01  0.000E+00  0.000E+00  0.000E+00  1.06362E+03  1.164E+00  6.655E+00  4.991E-02  1.582E+00
   1    6    8     3     6    8.8768E-01  5.5980E-02   8.3170E-01  0.000E+00  0.000E+00  0.000E+00  1.06158E+03  1.036E+00  6.145E+00  1.844E-02  1.518E+00
   1    5   10     4     1    1.0000E+01  9.0919E-02   9.9091E+00  0.000E+00  0.000E+00  0.000E+00  1.07836E+03  6.368E-01  1.000E+01  2.500E-02  1.212E+00
   1    5    9     4     2    9.9091E+00  1.8158E-01   9.7275E+00  0.000E+00  0.000E+00  0.000E+00  1.07154E+03  6.315E-01  1.000E+01  5.000E-02  1.211E+00
   1    6    8     4     3    9.7275E+00  1.2689E-01   9.6006E+00  0.000E+00  0.000E+00  0.000E+00  1.06381E+03  6.256E-01  1.000E+01  3.500E-02  1.209E+00
   1    6    8     5     1    1.0432E+01  2.2686E-01   1.0205E+01  0.000E+00  0.000E+00  0.000E+00  1.05868E+03  6.790E-01  1.542E+01  6.166E-02  1.226E+00
   1    7    7     5     2    1.0205E+01  2.7894E-01   9.9265E+00  0.000E+00  0.000E+00  0.000E+00  1.05417E+03  6.732E-01  1.519E+01  7.594E-02  1.224E+00
   1    8    7     5     3    9.9265E+00  1.9221E-01   9.7343E+00  0.000E+00  0.000E+00  0.000E+00  1.04992E+03  6.676E-01  1.497E+01  5.241E-02  1.223E+00
   1    8    6     5     4    9.7343E+00  1.3577E-01   9.5985E+00  0.000E+00  0.000E+00  0.000E+00  1.04691E+03  6.637E-01  1.482E+01  3.706E-02  1.221E+00
   1    9    6     6     1    8.6641E+01  3.3426E-01   8.6306E+01  0.000E+00  0.000E+00  0.000E+00  1.04530E+03  2.571E+00  1.200E+01  6.000E-02  1.857E+00
   1   10    7     6     2    8.6306E+01  3.3390E-01   8.5973E+01  0.000E+00  0.000E+00  0.000E+00  1.04075E+03  2.565E+00  1.200E+01  6.000E-02  1.855E+00
   1   11    7     6     3    8.5973E+01  3.3354E-01   8.5639E+01  0.000E+00  0.000E+00  0.000E+00  1.03620E+03  2.559E+00  1.200E+01  6.000E-02  1.853E+00
   1   12    7     6     4    8.5639E+01  3.3319E-01   8.5306E+01  0.000E+00  0.000E+00  0.000E+00  1.03164E+03  2.553E+00  1.200E+01  6.000E-02  1.851E+00
   1   13    7     6     5    8.5306E+01  2.9667E-02   8.5276E+01  0.000E+00  0.000E+00  0.000E+00  1.02846E+03  2.550E+00  1.200E+01  2.400E-02  4.120E-01
   1   14    9     7     1    1.5000E+02  1.3319E+00   1.4867E+02  0.000E+00  0.000E+00  0.000E+00  1.03987E+03  2.288E+00  5.529E+01  5.593E-01  7.938E-01
   1   13    8     7     2    1.4867E+02  1.8047E+00   1.4686E+02  0.000E+00  0.000E+00  0.000E+00  1.03478E+03  2.279E+00  5.526E+01  6.148E-01  9.785E-01
   1   13    7     7     3    1.4686E+02  1.3780E+00   1.4549E+02  0.000E+00  0.000E+00  0.000E+00  1.02969E+03  2.271E+00  5.522E+01  5.585E-01  8.225E-01
   1   13    6     8     1    2.3076E+02  1.0561E+00   2.2971E+02  0.000E+00  0.000E+00  0.000E+00  1.02518E+03  3.308E+00  4.796E+01  4.888E-01  7.203E-01
   1   13    5     8     2    2.2971E+02  2.2234E-01   2.2948E+02  0.000E+00  0.000E+00  0.000E+00  1.01893E+03  3.304E+00  4.791E+01  4.883E-01  1.518E-01
   1   13    4     8     3    2.2948E+02 -1.9821E+00   2.3147E+02  0.000E+00  0.000E+00  0.000E+00  1.01268E+03  3.309E+00  4.798E+01  4.890E+00 -1.351E-01
   1   13    3     8     4    2.3147E+02 -3.1580E+00   2.3462E+02  0.000E+00  0.000E+00  0.000E+00  1.00645E+03  3.323E+00  4.818E+01  4.910E+00 -2.144E-01
   1   13    2     8     5    2.3462E+02 -2.5558E+00   2.3718E+02  0.000E+00  0.000E+00  0.000E+00  1.00021E+03  3.338E+00  4.840E+01  4.932E+00 -1.727E-01
   1   13    1     8     6    2.3718E+02 -1.9851E+00   2.3916E+02  0.000E+00  0.000E+00  0.000E+00  9.95225E+02  3.350E+00  4.858E+01  2.970E+00 -2.228E-01



 UBDSV3 SAVING "           GW ET" ON UNIT  61 AT TIME STEP 15, STRESS PERIOD   7
 UBDSV3 SAVING "    UZF RECHARGE" ON UNIT  61 AT TIME STEP 15, STRESS PERIOD   7
 UBDSV3 SAVING " SURFACE LEAKAGE" ON UNIT  61 AT TIME STEP 15, STRESS PERIOD   7
 UBDSV3 SAVING "       HORT+DUNN" ON UNIT  61 AT TIME STEP 15, STRESS PERIOD   7
 UBDSV3 SAVING "  STORAGE CHANGE" ON UNIT  61 AT TIME STEP 15, STRESS PERIOD   7


UNSATURATED ZONE PACKAGE VOLUMETRIC BUDGET FOR  TIME STEP    15 STRESS PERIOD    7
  ------------------------------------------------------------------------------



     CUMULATIVE VOLUMES      L**3       RATES FOR THIS TIME STEP      L**3/T
     ------------------                 ------------------------

           IN:                                      IN:
           ---                                      ---
        INFILTRATION =    71310443.0983          INFILTRATION =          23.3175

          OUT:                                     OUT:
          ----                                     ----
              UZF ET =    71236250.5101                UZF ET =          23.3175
        UZF RECHARGE =       73224.0000          UZF RECHARGE =       0.0000E+00

            IN - OUT =         968.5882              IN - OUT =       4.2915E-06

          STORAGE:                                 STORAGE:
          --------                                 --------
      STORAGE CHANGE =         968.6349        STORAGE CHANGE =       4.2634E-06

 PERCENT DISCREPANCY IS DIFFERENCE BETWEEN IN-OUT MINUS CHANGE IN STORAGE
 DIVIDED BY THE AVERAGE OF IN AND OUT TIMES 100

 PERCENT DISCREPANCY =           0.00     PERCENT DISCREPANCY =           0.00






 

            AG WELLS      PERIOD    7   STEP  15
 AG WELL      1   LAYER   1   ROW     6   COL     4   RATE    -3.74500    
 AG WELL      2   LAYER   1   ROW     6   COL     5   RATE    -3.74500    
 AG WELL      3   LAYER   1   ROW     7   COL     4   RATE    -3.74500    
 AG WELL      4   LAYER   1   ROW     7   COL     5   RATE    -3.74500    
 AG WELL      5   LAYER   1   ROW     8   COL     4   RATE    -3.74500    
 AG WELL      6   LAYER   1   ROW     8   COL     5   RATE    -3.74500    
 
 

        GW IRRIGATION     PERIOD    7   STEP  15
 AG WELL      1   ROW     6   COL     4   RATE     3.74500    
 AG WELL      2   ROW     6   COL     5   RATE     3.74500    
 AG WELL      3   ROW     7   COL     4   RATE     3.74500    
 AG WELL      4   ROW     7   COL     5   RATE     3.74500    
 AG WELL      5   ROW     8   COL     4   RATE     3.74500    
 AG WELL      6   ROW     8   COL     5   RATE     3.74500    
 
1
  VOLUMETRIC BUDGET FOR AGRICULTURAL FIELDS AT  END OF TIME STEP   15, STRESS PERIOD   7
  ------------------------------------------------------------------------------

     CUMULATIVE VOLUMES      L**3       RATES FOR THIS TIME STEP      L**3/T
     ------------------                 ------------------------

           IN:                                      IN:
           ---                                      ---
               AG WELLS  =    58978152.0000                 AG WELLS  =          22.4700
      DIVERSION SEGMENTS =           0.0000        DIVERSION SEGMENTS =           0.0000
           GW IRRIGATION =           0.0000             GW IRRIGATION =           0.0000
           SW IRRIGATION =           0.0000             SW IRRIGATION =           0.0000
        SYSTEM LOSSES GW =           0.0000          SYSTEM LOSSES GW =           0.0000
        SYSTEM LOSSES SW =           0.0000          SYSTEM LOSSES SW =           0.0000

                TOTAL IN =    58978152.0000                  TOTAL IN =          22.4700

          OUT:                                     OUT:
          ----                                     ----
               AG WELLS  =           0.0000                 AG WELLS  =           0.0000
      DIVERSION SEGMENTS =           0.0000        DIVERSION SEGMENTS =           0.0000
           GW IRRIGATION =    58978152.0000             GW IRRIGATION =          22.4700
           SW IRRIGATION =           0.0000             SW IRRIGATION =           0.0000
        SYSTEM LOSSES GW =           0.0000          SYSTEM LOSSES GW =           0.0000
        SYSTEM LOSSES SW =           0.0000          SYSTEM LOSSES SW =           0.0000

               TOTAL OUT =    58978152.0000                 TOTAL OUT =          22.4700

                IN - OUT =           0.0000                  IN - OUT =           0.0000

     PERCENT DISCREPANCY =           0.00         PERCENT DISCREPANCY =           0.00



1
  VOLUMETRIC BUDGET FOR ENTIRE MODEL AT END OF TIME STEP   15, STRESS PERIOD   7
  ------------------------------------------------------------------------------

     CUMULATIVE VOLUMES      L**3       RATES FOR THIS TIME STEP      L**3/T
     ------------------                 ------------------------

           IN:                                      IN:
           ---                                      ---
             STORAGE     =    65847676.0000               STORAGE     =          21.8828
       CONSTANT HEAD     =           0.0000         CONSTANT HEAD     =           0.0000
     HEAD DEP BOUNDS     =     4153689.5000       HEAD DEP BOUNDS     =           0.2855
      STREAM LEAKAGE     =   184455232.0000        STREAM LEAKAGE     =          13.5172
        UZF RECHARGE     =       73223.9531          UZF RECHARGE     =           0.0000
               GW ET     =           0.0000                 GW ET     =           0.0000
     SURFACE LEAKAGE     =           0.0000       SURFACE LEAKAGE     =           0.0000
           AG WELLS      =           0.0000             AG WELLS      =           0.0000

                TOTAL IN =   254529824.0000                  TOTAL IN =          35.6855

          OUT:                                     OUT:
          ----                                     ----
             STORAGE     =    39421732.0000               STORAGE     =           1.8823
       CONSTANT HEAD     =           0.0000         CONSTANT HEAD     =           0.0000
     HEAD DEP BOUNDS     =     4279811.5000       HEAD DEP BOUNDS     =           0.3000
      STREAM LEAKAGE     =   147660256.0000        STREAM LEAKAGE     =           9.6810
        UZF RECHARGE     =           0.0000          UZF RECHARGE     =           0.0000
               GW ET     =     4192415.0000                 GW ET     =           1.3524
     SURFACE LEAKAGE     =           0.0000       SURFACE LEAKAGE     =           0.0000
           AG WELLS      =    58978152.0000             AG WELLS      =          22.4700

               TOTAL OUT =   254532352.0000                 TOTAL OUT =          35.6856

                IN - OUT =       -2528.0000                  IN - OUT =      -6.8665E-05

     PERCENT DISCREPANCY =          -0.00         PERCENT DISCREPANCY =          -0.00






         TIME SUMMARY AT END OF TIME STEP   15 IN STRESS PERIOD    7
                    SECONDS     MINUTES      HOURS       DAYS        YEARS
                    -----------------------------------------------------------
   TIME STEP LENGTH  87667.      1461.1      24.352      1.0147     2.77799E-03
 STRESS PERIOD TIME 1.31500E+06  21917.      365.28      15.220     4.16698E-02
         TOTAL TIME 1.45514E+07 2.42524E+05  4042.1      168.42     0.46111    
1
 
 SOLVING FOR HEAD 
                                                   Max.-Head-Change                         Max.-Flux-Residual
  Residual-Control   Outer-Iter.   Inner-Iter.     Column Row Layer    Maximum-Head-Change  Column Row Layer    Maximum-Flux-Residual          L2-NORM 
          0                 1           2             4    7     1      -0.5598498777E-01       4    7    1        -0.2936787241E+01      0.6426120532E+01
          0                 2           2             4    7     1       0.5445755457E-02       4    7    1         0.2936749873E+00      0.6426029926E+00
          0                 3           2             4    7     1      -0.3708405948E-03       4    7    1        -0.2055752952E-01      0.4498248884E-01
          0                 4           1             4    7     1       0.1475188797E-04       4    7    1         0.8405655399E-03      0.1839221202E-02

    ------------------------------------------------
       NWT REQUIRED            4 OUTER ITERATIONS 
       AND A TOTAL OF          7 INNER ITERATIONS.
    ------------------------------------------------

 NO OUTPUT CONTROL FOR STRESS PERIOD    7   TIME STEP   16
 
 SOLVING FOR HEAD 
                                                   Max.-Head-Change                         Max.-Flux-Residual
  Residual-Control   Outer-Iter.   Inner-Iter.     Column Row Layer    Maximum-Head-Change  Column Row Layer    Maximum-Flux-Residual          L2-NORM 
          0                 1           2             4    7     1      -0.5544857326E-01       4    7    1        -0.2908947399E+01      0.6358654578E+01
          0                 2           2             4    7     1       0.5393577184E-02       4    7    1         0.2908910160E+00      0.6358576716E+00
          0                 3           2             4    7     1      -0.3672874457E-03       4    7    1        -0.2036265131E-01      0.4451042337E-01
          0                 4           1             4    7     1       0.1461050529E-04       4    7    1         0.8325950212E-03      0.1819892125E-02

    ------------------------------------------------
       NWT REQUIRED            4 OUTER ITERATIONS 
       AND A TOTAL OF          7 INNER ITERATIONS.
    ------------------------------------------------

 NO OUTPUT CONTROL FOR STRESS PERIOD    7   TIME STEP   17
 
 SOLVING FOR HEAD 
                                                   Max.-Head-Change                         Max.-Flux-Residual
  Residual-Control   Outer-Iter.   Inner-Iter.     Column Row Layer    Maximum-Head-Change  Column Row Layer    Maximum-Flux-Residual          L2-NORM 
          0                 1           2             4    7     1      -0.5491193607E-01       4    7    1        -0.2881060061E+01      0.6293333117E+01
          0                 2           2             4    7     1       0.5341377326E-02       4    7    1         0.2881023004E+00      0.6293261371E+00
          0                 3           2             4    7     1      -0.3637328255E-03       4    7    1        -0.2016744095E-01      0.4405327526E-01
          0                 4           1             4    7     1       0.1446906320E-04       4    7    1         0.8246108996E-03      0.1801206896E-02

    ------------------------------------------------
       NWT REQUIRED            4 OUTER ITERATIONS 
       AND A TOTAL OF          7 INNER ITERATIONS.
    ------------------------------------------------

 NO OUTPUT CONTROL FOR STRESS PERIOD    7   TIME STEP   18
 
 SOLVING FOR HEAD 
                                                   Max.-Head-Change                         Max.-Flux-Residual
  Residual-Control   Outer-Iter.   Inner-Iter.     Column Row Layer    Maximum-Head-Change  Column Row Layer    Maximum-Flux-Residual          L2-NORM 
          0                 1           2             4    7     1      -0.5437625247E-01       4    7    1        -0.2853190745E+01      0.6230046943E+01
          0                 2           2             4    7     1       0.5289270293E-02       4    7    1         0.2853153914E+00      0.6229981281E+00
          0                 3           2             4    7     1      -0.3601845266E-03       4    7    1        -0.1997235705E-01      0.4361035274E-01
          0                 4           1             4    7     1       0.1432787325E-04       4    7    1         0.8166319622E-03      0.1783109761E-02

    ------------------------------------------------
       NWT REQUIRED            4 OUTER ITERATIONS 
       AND A TOTAL OF          7 INNER ITERATIONS.
    ------------------------------------------------

 NO OUTPUT CONTROL FOR STRESS PERIOD    7   TIME STEP   19
 
 SOLVING FOR HEAD 
                                                   Max.-Head-Change                         Max.-Flux-Residual
  Residual-Control   Outer-Iter.   Inner-Iter.     Column Row Layer    Maximum-Head-Change  Column Row Layer    Maximum-Flux-Residual          L2-NORM 
          0                 1           2             4    7     1      -0.5384180442E-01       4    7    1        -0.2825356115E+01      0.6168677234E+01
          0                 2           2             4    7     1       0.5237283502E-02       4    7    1         0.2825319551E+00      0.6168616361E+00
          0                 3           2             4    7     1      -0.3566444146E-03       4    7    1        -0.1977751616E-01      0.4318083818E-01
          0                 4           1             4    7     1       0.1418700887E-04       4    7    1         0.8086629605E-03      0.1765544769E-02

    ------------------------------------------------
       NWT REQUIRED            4 OUTER ITERATIONS 
       AND A TOTAL OF          7 INNER ITERATIONS.
    ------------------------------------------------

 NO OUTPUT CONTROL FOR STRESS PERIOD    7   TIME STEP   20
 
 SOLVING FOR HEAD 
                                                   Max.-Head-Change                         Max.-Flux-Residual
  Residual-Control   Outer-Iter.   Inner-Iter.     Column Row Layer    Maximum-Head-Change  Column Row Layer    Maximum-Flux-Residual          L2-NORM 
          0                 1           2             4    7     1      -0.5330911690E-01       4    7    1        -0.2797585563E+01      0.6109123999E+01
          0                 2           2             4    7     1       0.5185468016E-02       4    7    1         0.2797549304E+00      0.6109067023E+00
          0                 3           2             4    7     1      -0.3531159674E-03       4    7    1        -0.1958312406E-01      0.4276401459E-01
          0                 4           1             4    7     1       0.1404660892E-04       4    7    1         0.8007123206E-03      0.1748499497E-02

    ------------------------------------------------
       NWT REQUIRED            4 OUTER ITERATIONS 
       AND A TOTAL OF          7 INNER ITERATIONS.
    ------------------------------------------------

 NO OUTPUT CONTROL FOR STRESS PERIOD    7   TIME STEP   21
 
 SOLVING FOR HEAD 
                                                   Max.-Head-Change                         Max.-Flux-Residual
  Residual-Control   Outer-Iter.   Inner-Iter.     Column Row Layer    Maximum-Head-Change  Column Row Layer    Maximum-Flux-Residual          L2-NORM 
          0                 1           2             4    7     1      -0.5277867202E-01       4    7    1        -0.2769906311E+01      0.6051291958E+01
          0                 2           2             4    7     1       0.5133870723E-02       4    7    1         0.2769870389E+00      0.6051238126E+00
          0                 3           2             4    7     1      -0.3496023777E-03       4    7    1        -0.1938937125E-01      0.4235921285E-01
          0                 4           1             4    7     1       0.1390679980E-04       4    7    1         0.7927878223E-03      0.1731948108E-02

    ------------------------------------------------
       NWT REQUIRED            4 OUTER ITERATIONS 
       AND A TOTAL OF          7 INNER ITERATIONS.
    ------------------------------------------------

 NO OUTPUT CONTROL FOR STRESS PERIOD    7   TIME STEP   22
 
 SOLVING FOR HEAD 
                                                   Max.-Head-Change                         Max.-Flux-Residual
  Residual-Control   Outer-Iter.   Inner-Iter.     Column Row Layer    Maximum-Head-Change  Column Row Layer    Maximum-Flux-Residual          L2-NORM 
          0                 1           2             4    7     1      -0.5225089773E-01       4    7    1        -0.2742343357E+01      0.5995092187E+01
          0                 2           2             4    7     1       0.5082533245E-02       4    7    1         0.2742307799E+00      0.5995041162E+00
          0                 3           2             4    7     1      -0.3461064806E-03       4    7    1        -0.1919643270E-01      0.4196585488E-01
          0                 4           1             4    7     1       0.1376769527E-04       4    7    1         0.7848966461E-03      0.1715858770E-02

    ------------------------------------------------
       NWT REQUIRED            4 OUTER ITERATIONS 
       AND A TOTAL OF          7 INNER ITERATIONS.
    ------------------------------------------------

 NO OUTPUT CONTROL FOR STRESS PERIOD    7   TIME STEP   23
 
 SOLVING FOR HEAD 
                                                   Max.-Head-Change                         Max.-Flux-Residual
  Residual-Control   Outer-Iter.   Inner-Iter.     Column Row Layer    Maximum-Head-Change  Column Row Layer    Maximum-Flux-Residual          L2-NORM 
          0                 1           2             4    7     1      -0.5172645962E-01       4    7    1        -0.2714933652E+01      0.5940462456E+01
          0                 2           2             4    7     1       0.5031520321E-02       4    7    1         0.2714898483E+00      0.5940410863E+00
          0                 3           2             4    7     1      -0.3426326834E-03       4    7    1        -0.1900456704E-01      0.4158344502E-01
          0                 4           1             4    7     1       0.1362946939E-04       4    7    1         0.7770493025E-03      0.1700218430E-02

    ------------------------------------------------
       NWT REQUIRED            4 OUTER ITERATIONS 
       AND A TOTAL OF          7 INNER ITERATIONS.
    ------------------------------------------------

 NO OUTPUT CONTROL FOR STRESS PERIOD    7   TIME STEP   24
 
 SOLVING FOR HEAD 
                                                   Max.-Head-Change                         Max.-Flux-Residual
  Residual-Control   Outer-Iter.   Inner-Iter.     Column Row Layer    Maximum-Head-Change  Column Row Layer    Maximum-Flux-Residual          L2-NORM 
          0                 1           2             4    7     1      -0.5120516536E-01       4    7    1        -0.2687667415E+01      0.5887310997E+01
          0                 2           2             4    7     1       0.4980813305E-02       4    7    1         0.2687632657E+00      0.5887265275E+00
          0                 3           2             4    7     1      -0.3391797138E-03       4    7    1        -0.1881370578E-01      0.4121142649E-01
          0                 4           1             4    7     1       0.1349207243E-04       4    7    1         0.7692430722E-03      0.1685000745E-02

    ------------------------------------------------
       NWT REQUIRED            4 OUTER ITERATIONS 
       AND A TOTAL OF          7 INNER ITERATIONS.
    ------------------------------------------------

 NO OUTPUT CONTROL FOR STRESS PERIOD    7   TIME STEP   25
 
 SOLVING FOR HEAD 
                                                   Max.-Head-Change                         Max.-Flux-Residual
  Residual-Control   Outer-Iter.   Inner-Iter.     Column Row Layer    Maximum-Head-Change  Column Row Layer    Maximum-Flux-Residual          L2-NORM 
          0                 1           2             4    7     1      -0.5068761856E-01       4    7    1        -0.2660578962E+01      0.5835578752E+01
          0                 2           2             4    7     1       0.4930471055E-02       4    7    1         0.2660544633E+00      0.5835538075E+00
          0                 3           2             4    7     1      -0.3357515869E-03       4    7    1        -0.1862408912E-01      0.4084933635E-01
          0                 4           1             4    7     1       0.1335566418E-04       4    7    1         0.7614877418E-03      0.1670195823E-02

    ------------------------------------------------
       NWT REQUIRED            4 OUTER ITERATIONS 
       AND A TOTAL OF          7 INNER ITERATIONS.
    ------------------------------------------------

 NO OUTPUT CONTROL FOR STRESS PERIOD    7   TIME STEP   26
 
 SOLVING FOR HEAD 
                                                   Max.-Head-Change                         Max.-Flux-Residual
  Residual-Control   Outer-Iter.   Inner-Iter.     Column Row Layer    Maximum-Head-Change  Column Row Layer    Maximum-Flux-Residual          L2-NORM 
          0                 1           2             4    7     1      -0.5017438380E-01       4    7    1        -0.2633699580E+01      0.5785208516E+01
          0                 2           2             4    7     1       0.4880554801E-02       4    7    1         0.2633665696E+00      0.5787262956E+00
          0                 3           2             4    7     1      -0.3323524683E-03       4    7    1        -0.1843593605E-01      0.4051140910E-01
          0                 4           1             4    7     1       0.1322041020E-04       4    7    1         0.7537922793E-03      0.1656379741E-02

    ------------------------------------------------
       NWT REQUIRED            4 OUTER ITERATIONS 
       AND A TOTAL OF          7 INNER ITERATIONS.
    ------------------------------------------------

 NO OUTPUT CONTROL FOR STRESS PERIOD    7   TIME STEP   27
 
 SOLVING FOR HEAD 
                                                   Max.-Head-Change                         Max.-Flux-Residual
  Residual-Control   Outer-Iter.   Inner-Iter.     Column Row Layer    Maximum-Head-Change  Column Row Layer    Maximum-Flux-Residual          L2-NORM 
          0                 1           2             4    7     1      -0.4966514398E-01       4    7    1        -0.2607013922E+01      0.5735960189E+01
          0                 2           2             4    7     1       0.4831013517E-02       4    7    1         0.2606980496E+00      0.5735923992E+00
          0                 3           2             4    7     1      -0.3289788841E-03       4    7    1        -0.1824913915E-01      0.4015203787E-01
          0                 4           1             4    7     1       0.1308617188E-04       4    7    1         0.7461522746E-03      0.1641678530E-02

    ------------------------------------------------
       NWT REQUIRED            4 OUTER ITERATIONS 
       AND A TOTAL OF          7 INNER ITERATIONS.
    ------------------------------------------------

 NO OUTPUT CONTROL FOR STRESS PERIOD    7   TIME STEP   28
 
 SOLVING FOR HEAD 
                                                   Max.-Head-Change                         Max.-Flux-Residual
  Residual-Control   Outer-Iter.   Inner-Iter.     Column Row Layer    Maximum-Head-Change  Column Row Layer    Maximum-Flux-Residual          L2-NORM 
          0                 1           2             4    7     1      -0.4916069505E-01       4    7    1        -0.2580565663E+01      0.5687895673E+01
          0                 2           2             4    7     1       0.4781945091E-02       4    7    1         0.2580532705E+00      0.5687860380E+00
          0                 3           2             4    7     1      -0.3256374995E-03       4    7    1        -0.1806400408E-01      0.3981559199E-01
          0                 4           1             4    7     1       0.1295321539E-04       4    7    1         0.7385802501E-03      0.1627919776E-02

    ------------------------------------------------
       NWT REQUIRED            4 OUTER ITERATIONS 
       AND A TOTAL OF          7 INNER ITERATIONS.
    ------------------------------------------------

 NO OUTPUT CONTROL FOR STRESS PERIOD    7   TIME STEP   29
 
 SOLVING FOR HEAD 
                                                   Max.-Head-Change                         Max.-Flux-Residual
  Residual-Control   Outer-Iter.   Inner-Iter.     Column Row Layer    Maximum-Head-Change  Column Row Layer    Maximum-Flux-Residual          L2-NORM 
          0                 1           2             4    7     1      -0.4866097652E-01       4    7    1        -0.2554350703E+01      0.5647169257E+01
          0                 2           2             4    7     1       0.4733336817E-02       4    7    1         0.2554318223E+00      0.5646858897E+00
          0                 3           2             4    7     1      -0.3223274492E-03       4    7    1        -0.1788050217E-01      0.3952606505E-01
          0                 4           1             4    7     1       0.1282150550E-04       4    7    1         0.7310750202E-03      0.1615951362E-02

    ------------------------------------------------
       NWT REQUIRED            4 OUTER ITERATIONS 
       AND A TOTAL OF          7 INNER ITERATIONS.
    ------------------------------------------------

 NO OUTPUT CONTROL FOR STRESS PERIOD    7   TIME STEP   30



 STREAM LISTING     PERIOD      7   STEP       30

 LAYER ROW COL. STREAM  RCH.  FLOW INTO     FLOW TO   FLOW OUT OF   OVRLND.     DIRECT     STREAM       STREAM     STREAM     STREAM   STREAMBED  STREAMBED
                SEG.NO.  NO.  STRM. RCH.    AQUIFER    STRM. RCH.    RUNOFF     PRECIP       ET          HEAD       DEPTH      WIDTH   CONDCTNC.   GRADIENT

   1    1    1     1     1    7.6939E+01  4.2690E-01   7.6512E+01  0.000E+00  0.000E+00  0.000E+00  1.09476E+03  1.708E+00  2.015E+01  9.068E-02  1.569E+00
   1    2    2     1     2    7.6512E+01  6.6216E-01   7.5850E+01  0.000E+00  0.000E+00  0.000E+00  1.08976E+03  1.705E+00  2.010E+01  1.407E-01  1.568E+00
   1    3    3     1     3    7.5850E+01  5.6572E-01   7.5284E+01  0.000E+00  0.000E+00  0.000E+00  1.08412E+03  1.703E+00  2.005E+01  1.203E-01  1.568E+00
   1    3    4     1     4    7.5284E+01  5.2177E-01   7.4762E+01  0.000E+00  0.000E+00  0.000E+00  1.07911E+03  1.700E+00  2.000E+01  1.110E-01  1.567E+00
   1    4    5     2     1    7.2762E+01  4.1250E-01   7.2350E+01  0.000E+00  0.000E+00  0.000E+00  1.07422E+03  2.288E+00  1.200E+01  7.800E-02  1.763E+00
   1    5    6     2     2    7.2350E+01  3.1689E-01   7.2033E+01  0.000E+00  0.000E+00  0.000E+00  1.06879E+03  2.282E+00  1.200E+01  6.000E-02  1.761E+00
   1    6    6     2     3    7.2033E+01  3.1653E-01   7.1717E+01  0.000E+00  0.000E+00  0.000E+00  1.06407E+03  2.276E+00  1.200E+01  6.000E-02  1.759E+00
   1    7    6     2     4    7.1717E+01  3.1617E-01   7.1400E+01  0.000E+00  0.000E+00  0.000E+00  1.05934E+03  2.270E+00  1.200E+01  6.000E-02  1.757E+00
   1    8    6     2     5    7.1400E+01  3.1581E-01   7.1085E+01  0.000E+00  0.000E+00  0.000E+00  1.05462E+03  2.264E+00  1.200E+01  6.000E-02  1.755E+00
   1    3    5     3     1    2.0000E+00  2.8252E-01   1.7175E+00  0.000E+00  0.000E+00  0.000E+00  1.07555E+03  1.909E+00  9.636E+00  7.227E-02  1.955E+00
   1    3    6     3     2    1.7175E+00  2.4905E-01   1.4684E+00  0.000E+00  0.000E+00  0.000E+00  1.07264E+03  1.727E+00  8.909E+00  6.682E-02  1.864E+00
   1    3    7     3     3    1.4684E+00  1.9718E-01   1.2712E+00  0.000E+00  0.000E+00  0.000E+00  1.06987E+03  1.555E+00  8.218E+00  5.547E-02  1.777E+00
   1    4    8     3     4    1.2712E+00  2.2567E-01   1.0456E+00  0.000E+00  0.000E+00  0.000E+00  1.06682E+03  1.364E+00  7.455E+00  6.709E-02  1.682E+00
   1    5    8     3     5    1.0456E+00  1.5790E-01   8.8768E-01  0.000E+00  0.000E+00  0.000E+00  1.06362E+03  1.164E+00  6.655E+00  4.991E-02  1.582E+00
   1    6    8     3     6    8.8768E-01  5.5980E-02   8.3170E-01  0.000E+00  0.000E+00  0.000E+00  1.06158E+03  1.036E+00  6.145E+00  1.844E-02  1.518E+00
   1    5   10     4     1    1.0000E+01  9.0919E-02   9.9091E+00  0.000E+00  0.000E+00  0.000E+00  1.07836E+03  6.368E-01  1.000E+01  2.500E-02  1.212E+00
   1    5    9     4     2    9.9091E+00  1.8158E-01   9.7275E+00  0.000E+00  0.000E+00  0.000E+00  1.07154E+03  6.315E-01  1.000E+01  5.000E-02  1.211E+00
   1    6    8     4     3    9.7275E+00  1.2689E-01   9.6006E+00  0.000E+00  0.000E+00  0.000E+00  1.06381E+03  6.256E-01  1.000E+01  3.500E-02  1.209E+00
   1    6    8     5     1    1.0432E+01  2.2686E-01   1.0205E+01  0.000E+00  0.000E+00  0.000E+00  1.05868E+03  6.790E-01  1.542E+01  6.166E-02  1.226E+00
   1    7    7     5     2    1.0205E+01  2.7894E-01   9.9265E+00  0.000E+00  0.000E+00  0.000E+00  1.05417E+03  6.732E-01  1.519E+01  7.594E-02  1.224E+00
   1    8    7     5     3    9.9265E+00  1.9221E-01   9.7343E+00  0.000E+00  0.000E+00  0.000E+00  1.04992E+03  6.676E-01  1.497E+01  5.241E-02  1.223E+00
   1    8    6     5     4    9.7343E+00  1.3577E-01   9.5985E+00  0.000E+00  0.000E+00  0.000E+00  1.04691E+03  6.637E-01  1.482E+01  3.706E-02  1.221E+00
   1    9    6     6     1    8.0683E+01  3.2780E-01   8.0355E+01  0.000E+00  0.000E+00  0.000E+00  1.04519E+03  2.463E+00  1.200E+01  6.000E-02  1.821E+00
   1   10    7     6     2    8.0355E+01  3.2743E-01   8.0028E+01  0.000E+00  0.000E+00  0.000E+00  1.04064E+03  2.457E+00  1.200E+01  6.000E-02  1.819E+00
   1   11    7     6     3    8.0028E+01  3.2707E-01   7.9701E+01  0.000E+00  0.000E+00  0.000E+00  1.03609E+03  2.451E+00  1.200E+01  6.000E-02  1.817E+00
   1   12    7     6     4    7.9701E+01  3.2671E-01   7.9374E+01  0.000E+00  0.000E+00  0.000E+00  1.03154E+03  2.445E+00  1.200E+01  6.000E-02  1.815E+00
   1   13    7     6     5    7.9374E+01  2.6851E-02   7.9347E+01  0.000E+00  0.000E+00  0.000E+00  1.02835E+03  2.442E+00  1.200E+01  2.400E-02  3.729E-01
   1   14    9     7     1    1.5000E+02  1.3318E+00   1.4867E+02  0.000E+00  0.000E+00  0.000E+00  1.03987E+03  2.288E+00  5.529E+01  5.593E-01  7.937E-01
   1   13    8     7     2    1.4867E+02  1.8024E+00   1.4687E+02  0.000E+00  0.000E+00  0.000E+00  1.03478E+03  2.279E+00  5.526E+01  6.148E-01  9.773E-01
   1   13    7     7     3    1.4687E+02  1.3727E+00   1.4549E+02  0.000E+00  0.000E+00  0.000E+00  1.02969E+03  2.271E+00  5.522E+01  5.585E-01  8.193E-01
   1   13    6     8     1    2.2484E+02  1.0256E+00   2.2381E+02  0.000E+00  0.000E+00  0.000E+00  1.02515E+03  3.276E+00  4.750E+01  4.840E-01  7.063E-01
   1   13    5     8     2    2.2381E+02  2.0293E-01   2.2361E+02  0.000E+00  0.000E+00  0.000E+00  1.01890E+03  3.272E+00  4.745E+01  4.835E-01  1.399E-01
   1   13    4     8     3    2.2361E+02 -2.0940E+00   2.2571E+02  0.000E+00  0.000E+00  0.000E+00  1.01265E+03  3.278E+00  4.752E+01  4.843E+00 -1.441E-01
   1   13    3     8     4    2.2571E+02 -3.2525E+00   2.2896E+02  0.000E+00  0.000E+00  0.000E+00  1.00642E+03  3.292E+00  4.774E+01  4.864E+00 -2.229E-01
   1   13    2     8     5    2.2896E+02 -2.6238E+00   2.3158E+02  0.000E+00  0.000E+00  0.000E+00  1.00018E+03  3.308E+00  4.797E+01  4.888E+00 -1.789E-01
   1   13    1     8     6    2.3158E+02 -2.0372E+00   2.3362E+02  0.000E+00  0.000E+00  0.000E+00  9.95196E+02  3.321E+00  4.815E+01  2.944E+00 -2.307E-01





UNSATURATED ZONE PACKAGE VOLUMETRIC BUDGET FOR  TIME STEP    30 STRESS PERIOD    7
  ------------------------------------------------------------------------------



     CUMULATIVE VOLUMES      L**3       RATES FOR THIS TIME STEP      L**3/T
     ------------------                 ------------------------

           IN:                                      IN:
           ---                                      ---
        INFILTRATION =   101972961.1615          INFILTRATION =          23.3175

          OUT:                                     OUT:
          ----                                     ----
              UZF ET =   101898762.9483                UZF ET =          23.3175
        UZF RECHARGE =       73224.0000          UZF RECHARGE =       0.0000E+00

            IN - OUT =         974.2132              IN - OUT =       4.2915E-06

          STORAGE:                                 STORAGE:
          --------                                 --------
      STORAGE CHANGE =         974.2413        STORAGE CHANGE =       4.2664E-06

 PERCENT DISCREPANCY IS DIFFERENCE BETWEEN IN-OUT MINUS CHANGE IN STORAGE
 DIVIDED BY THE AVERAGE OF IN AND OUT TIMES 100

 PERCENT DISCREPANCY =           0.00     PERCENT DISCREPANCY =           0.00






1
  VOLUMETRIC BUDGET FOR AGRICULTURAL FIELDS AT  END OF TIME STEP   30, STRESS PERIOD   7
  ------------------------------------------------------------------------------

     CUMULATIVE VOLUMES      L**3       RATES FOR THIS TIME STEP      L**3/T
     ------------------                 ------------------------

           IN:                                      IN:
           ---                                      ---
               AG WELLS  =    88526232.0000                 AG WELLS  =          22.4700
      DIVERSION SEGMENTS =           0.0000        DIVERSION SEGMENTS =           0.0000
           GW IRRIGATION =           0.0000             GW IRRIGATION =           0.0000
           SW IRRIGATION =           0.0000             SW IRRIGATION =           0.0000
        SYSTEM LOSSES GW =           0.0000          SYSTEM LOSSES GW =           0.0000
        SYSTEM LOSSES SW =           0.0000          SYSTEM LOSSES SW =           0.0000

                TOTAL IN =    88526232.0000                  TOTAL IN =          22.4700

          OUT:                                     OUT:
          ----                                     ----
               AG WELLS  =           0.0000                 AG WELLS  =           0.0000
      DIVERSION SEGMENTS =           0.0000        DIVERSION SEGMENTS =           0.0000
           GW IRRIGATION =    88526232.0000             GW IRRIGATION =          22.4700
           SW IRRIGATION =           0.0000             SW IRRIGATION =           0.0000
        SYSTEM LOSSES GW =           0.0000          SYSTEM LOSSES GW =           0.0000
        SYSTEM LOSSES SW =           0.0000          SYSTEM LOSSES SW =           0.0000

               TOTAL OUT =    88526232.0000                 TOTAL OUT =          22.4700

                IN - OUT =           0.0000                  IN - OUT =           0.0000

     PERCENT DISCREPANCY =           0.00         PERCENT DISCREPANCY =           0.00



1
  VOLUMETRIC BUDGET FOR ENTIRE MODEL AT END OF TIME STEP   30, STRESS PERIOD   7
  ------------------------------------------------------------------------------

     CUMULATIVE VOLUMES      L**3       RATES FOR THIS TIME STEP      L**3/T
     ------------------                 ------------------------

           IN:                                      IN:
           ---                                      ---
             STORAGE     =    94421856.0000               STORAGE     =          22.0169
       CONSTANT HEAD     =           0.0000         CONSTANT HEAD     =           0.0000
     HEAD DEP BOUNDS     =     4529104.5000       HEAD DEP BOUNDS     =           0.2855
      STREAM LEAKAGE     =   202204496.0000        STREAM LEAKAGE     =          13.3273
        UZF RECHARGE     =       73223.9531          UZF RECHARGE     =           0.0000
               GW ET     =           0.0000                 GW ET     =           0.0000
     SURFACE LEAKAGE     =           0.0000       SURFACE LEAKAGE     =           0.0000
           AG WELLS      =           0.0000             AG WELLS      =           0.0000

                TOTAL IN =   301228672.0000                  TOTAL IN =          35.6296

          OUT:                                     OUT:
          ----                                     ----
             STORAGE     =    41763048.0000               STORAGE     =           1.5739
       CONSTANT HEAD     =           0.0000         CONSTANT HEAD     =           0.0000
     HEAD DEP BOUNDS     =     4674104.5000       HEAD DEP BOUNDS     =           0.2997
      STREAM LEAKAGE     =   160347088.0000        STREAM LEAKAGE     =          10.0076
        UZF RECHARGE     =           0.0000          UZF RECHARGE     =           0.0000
               GW ET     =     5920915.5000                 GW ET     =           1.2785
     SURFACE LEAKAGE     =           0.0000       SURFACE LEAKAGE     =           0.0000
           AG WELLS      =    88526232.0000             AG WELLS      =          22.4700

               TOTAL OUT =   301231392.0000                 TOTAL OUT =          35.6297

                IN - OUT =       -2720.0000                  IN - OUT =      -7.2479E-05

     PERCENT DISCREPANCY =          -0.00         PERCENT DISCREPANCY =          -0.00






         TIME SUMMARY AT END OF TIME STEP   30 IN STRESS PERIOD    7
                    SECONDS     MINUTES      HOURS       DAYS        YEARS
                    -----------------------------------------------------------
   TIME STEP LENGTH  87667.      1461.1      24.352      1.0147     2.77799E-03
 STRESS PERIOD TIME 2.63000E+06  43833.      730.56      30.440     8.33397E-02
         TOTAL TIME 1.58664E+07 2.64440E+05  4407.3      183.64     0.50278    
1
1
                            STRESS PERIOD NO.    8, LENGTH =   2630000.    
                            -----------------------------------------------

                              NUMBER OF TIME STEPS =    30

                               MULTIPLIER FOR DELT =     1.000

                            INITIAL TIME STEP SIZE =   87666.66    

 REUSING NON-PARAMETER GHB CELLS FROM LAST STRESS PERIOD

      2 GHB CELLS

 REUSING STREAM SEGMENT DATA FROM LAST STRESS PERIOD



            AREAL INFILTRATION RATE
 READING ON UNIT   19 WITH FORMAT: (FREE)              

            1           2           3           4           5           6           7           8           9          10
 ........................................................................................................................
   1   1.0000E-10  2.0000E-10   0.000       0.000       0.000       0.000       0.000       0.000       0.000       0.000    
   2   2.0000E-10  1.0000E-10  2.0000E-10   0.000       0.000      8.0000E-10  8.0000E-10  5.0000E-10   0.000       0.000    
   3    0.000      5.0000E-10  1.0000E-10  1.0000E-10  8.0000E-10  8.0000E-10  5.0000E-10  5.0000E-10   0.000       0.000    
   4   8.0000E-10  5.0000E-10  1.0000E-10  1.0000E-10  1.0000E-10  1.0000E-10  1.0000E-10  1.0000E-10  2.0000E-10   0.000    
   5   8.0000E-10  5.0000E-10  1.0000E-10  1.0000E-10  1.0000E-10  1.0000E-10  1.0000E-10  1.0000E-10  1.0000E-10  1.0000E-10
   6   8.0000E-10  5.0000E-10  5.0000E-10  2.0000E-10  2.0000E-10  1.0000E-10  1.0000E-10  1.0000E-10  1.0000E-10  5.0000E-10
   7   8.0000E-10  5.0000E-10  5.0000E-10  2.0000E-10  2.0000E-10  1.0000E-10  1.0000E-10  2.0000E-10  2.0000E-10   0.000    
   8    0.000      5.0000E-10  5.0000E-10  2.0000E-10  2.0000E-10  1.0000E-10  1.0000E-10  2.0000E-10  5.0000E-10   0.000    
   9    0.000      5.0000E-10  5.0000E-10  2.0000E-10  2.0000E-10  1.0000E-10  1.0000E-10  2.0000E-10  5.0000E-10   0.000    
  10    0.000      5.0000E-10  5.0000E-10  2.0000E-10  2.0000E-10  1.0000E-10  1.0000E-10  2.0000E-10  5.0000E-10  8.0000E-10
  11    0.000      1.0000E-10  1.0000E-10  1.0000E-10  1.0000E-10  1.0000E-10  1.0000E-10  2.0000E-10  5.0000E-10   0.000    
  12   1.0000E-10  1.0000E-10  1.0000E-10  1.0000E-10  1.0000E-10  1.0000E-10  1.0000E-10  1.0000E-10  2.0000E-10   0.000    
  13   1.0000E-10  1.0000E-10  2.0000E-10  2.0000E-10  2.0000E-10  2.0000E-10  2.0000E-10  1.0000E-10  1.0000E-10   0.000    
  14    0.000      2.0000E-10  5.0000E-10  5.0000E-10  5.0000E-10  5.0000E-10  5.0000E-10  2.0000E-10  1.0000E-10   0.000    
  15    0.000       0.000      8.0000E-10  8.0000E-10  8.0000E-10  8.0000E-10   0.000       0.000       0.000       0.000    

                  ET RATE =  4.000000E-07

 USING ET EXTINCTION DEPTH FROM PREVIOUS STRESS PERIOD. CURRENT PERIOD IS:       8

 USING EXTINCTION WATER CONTENT FROM PREVIOUS STRESS PERIOD. CURRENT PERIOD IS:       8

 USING AIR ENTRY PRESSURE FROM PREVIOUS STRESS PERIOD. CURRENT PERIOD IS:       8

 USING ROOT PRESSURE HEAD FROM PREVIOUS STRESS PERIOD. CURRENT PERIOD IS:       8

 USING ROOT ACTIVITY FROM PREVIOUS STRESS PERIOD. CURRENT PERIOD IS:       8

 PROCESSING AG STRESS PERIOD DATA

 READING AG STRESS PERIOD DATA

 READING IRRIGATION WELL

 END PROCESSING AG STRESS PERIOD DATA OPTIONS
 
 SOLVING FOR HEAD 
                                                   Max.-Head-Change                         Max.-Flux-Residual
  Residual-Control   Outer-Iter.   Inner-Iter.     Column Row Layer    Maximum-Head-Change  Column Row Layer    Maximum-Flux-Residual          L2-NORM 
          0                 1           2             4    7     1      -0.1678712335E+00       4    7    1        -0.8778388166E+01      0.2061078987E+02
          0                 2           2             6    7     1       0.1560491746E-02       4   13    1         0.1203984793E+00      0.2946050664E+00
          0                 3           2             4    7     1      -0.1178678738E-01       4    7    1        -0.6504427782E+00      0.1585720992E+01
          0                 4           2             4    7     1      -0.9013922624E-02       5    8    1        -0.4975553973E+00      0.1218551625E+01
          0                 5           2             4    7     1      -0.7410945086E-02       4    7    1        -0.4088986665E+00      0.1001580269E+01
          0                 6           2             4    7     1      -0.6113348023E-02       5    8    1        -0.3373007294E+00      0.8262143380E+00
          0                 7           2             4    7     1      -0.5069479031E-02       4    7    1        -0.2797028194E+00      0.6851291614E+00
          0                 8           2             4    7     1      -0.4220573442E-02       4    7    1        -0.2328631536E+00      0.5703959043E+00
          0                 9           2             4    7     1      -0.3524941471E-02       4    7    1        -0.1944809325E+00      0.4763790473E+00
          0                10           2             4    7     1      -0.2951481928E-02       4    7    1        -0.1628399855E+00      0.3988748728E+00
                                                   Max.-Head-Change                         Max.-Flux-Residual
  Residual-Control   Outer-Iter.   Inner-Iter.     Column Row Layer    Maximum-Head-Change  Column Row Layer    Maximum-Flux-Residual          L2-NORM 
          0                11           2             4    7     1      -0.2476404121E-02       4    7    1        -0.1366275425E+00      0.3346677628E+00
          0                12           2             4    7     1      -0.2081322330E-02       4    7    1        -0.1148290831E+00      0.2812726604E+00
          0                13           2             4    7     1      -0.1751691668E-02       4    7    1        -0.9664202786E-01      0.2367236555E+00
          0                14           2             4    7     1      -0.1475973262E-02       4    7    1        -0.8142967074E-01      0.1994611429E+00
          0                15           2             4    7     1      -0.1244856000E-02       4    7    1        -0.6867823503E-01      0.1682266320E+00
          0                16           2             4    7     1      -0.1050752539E-02       4    7    1        -0.5796906269E-01      0.1419946243E+00
          0                17           2             4    7     1      -0.8874915186E-03       4    7    1        -0.4896162960E-01      0.1199310094E+00
          0                18           2             4    7     1      -0.7500190155E-03       4    7    1        -0.4137707157E-01      0.1013527123E+00
          0                19           2             4    7     1      -0.6341514824E-03       4    7    1        -0.3498455165E-01      0.8569430033E-01
          0                20           2             4    7     1      -0.5363784365E-03       4    7    1        -0.2959037268E-01      0.7248131430E-01
                                                   Max.-Head-Change                         Max.-Flux-Residual
  Residual-Control   Outer-Iter.   Inner-Iter.     Column Row Layer    Maximum-Head-Change  Column Row Layer    Maximum-Flux-Residual          L2-NORM 
          0                21           2             4    7     1      -0.4538532639E-03       5    7    1        -0.2503746840E-01      0.6132902198E-01
          0                22           2             4    7     1      -0.3840997180E-03       5    7    1        -0.2118921000E-01      0.5190275252E-01
          0                23           2             4    7     1      -0.3251622579E-03       5    7    1        -0.1793769907E-01      0.4393820987E-01
          0                24           2             4    7     1      -0.2753232796E-03       4    7    1        -0.1518816700E-01      0.3720325925E-01
          0                25           2             4    7     1      -0.2331665859E-03       5    7    1        -0.1286247581E-01      0.3150650253E-01
          0                26           2             4    7     1      -0.1974883444E-03       5    7    1        -0.1089420525E-01      0.2668524398E-01
          0                27           2             4    7     1      -0.1672834524E-03       4    8    1        -0.9227900348E-02      0.2260364723E-01
          0                28           2             4    7     1      -0.1417288141E-03       4    7    1        -0.7818148102E-02      0.1915047354E-01
          0                29           2             4    7     1      -0.1200630017E-03       5    7    1        -0.6622939156E-02      0.1622282150E-01
          0                30           1             4    7     1      -0.1017295193E-03       5    7    1        -0.5611569999E-02      0.1374548312E-01
          0                31           1             4    7     1      -0.8621530373E-04       4    8    1        -0.4755744150E-02      0.1164912257E-01

    ------------------------------------------------
       NWT REQUIRED           31 OUTER ITERATIONS 
       AND A TOTAL OF         60 INNER ITERATIONS.
    ------------------------------------------------

 OUTPUT CONTROL FOR STRESS PERIOD    8   TIME STEP    1
    PRINT BUDGET
    SAVE BUDGET
 UBDSV1 SAVING "         STORAGE" ON UNIT 102 AT TIME STEP  1, STRESS PERIOD   8
 UBDSV2 SAVING "   CONSTANT HEAD" ON UNIT 102 AT TIME STEP  1, STRESS PERIOD   8
 UBDSV1 SAVING "FLOW RIGHT FACE " ON UNIT 102 AT TIME STEP  1, STRESS PERIOD   8
 UBDSV1 SAVING "FLOW FRONT FACE " ON UNIT 102 AT TIME STEP  1, STRESS PERIOD   8

  HEAD DEP BOUNDS   PERIOD    8   STEP     1
 BOUNDARY      1   LAYER   1   ROW    13   COL     1   RATE   -0.299663    
 BOUNDARY      2   LAYER   1   ROW    14   COL     9   RATE    0.285485    



 STREAM LISTING     PERIOD      8   STEP        1

 LAYER ROW COL. STREAM  RCH.  FLOW INTO     FLOW TO   FLOW OUT OF   OVRLND.     DIRECT     STREAM       STREAM     STREAM     STREAM   STREAMBED  STREAMBED
                SEG.NO.  NO.  STRM. RCH.    AQUIFER    STRM. RCH.    RUNOFF     PRECIP       ET          HEAD       DEPTH      WIDTH   CONDCTNC.   GRADIENT

   1    1    1     1     1    7.5000E+01  4.2232E-01   7.4578E+01  0.000E+00  0.000E+00  0.000E+00  1.09475E+03  1.698E+00  1.998E+01  8.990E-02  1.566E+00
   1    2    2     1     2    7.4578E+01  6.5422E-01   7.3924E+01  0.000E+00  0.000E+00  0.000E+00  1.08975E+03  1.692E+00  1.992E+01  1.394E-01  1.564E+00
   1    3    3     1     3    7.3924E+01  5.5813E-01   7.3366E+01  0.000E+00  0.000E+00  0.000E+00  1.08410E+03  1.685E+00  1.985E+01  1.191E-01  1.562E+00
   1    3    4     1     4    7.3366E+01  5.1412E-01   7.2852E+01  0.000E+00  0.000E+00  0.000E+00  1.07909E+03  1.679E+00  1.980E+01  1.099E-01  1.560E+00
   1    4    5     2     1    7.0852E+01  4.0967E-01   7.0442E+01  0.000E+00  0.000E+00  0.000E+00  1.07419E+03  2.252E+00  1.200E+01  7.800E-02  1.751E+00
   1    5    6     2     2    7.0442E+01  3.1471E-01   7.0127E+01  0.000E+00  0.000E+00  0.000E+00  1.06875E+03  2.245E+00  1.200E+01  6.000E-02  1.748E+00
   1    6    6     2     3    7.0127E+01  3.1435E-01   6.9813E+01  0.000E+00  0.000E+00  0.000E+00  1.06403E+03  2.239E+00  1.200E+01  6.000E-02  1.746E+00
   1    7    6     2     4    6.9813E+01  3.1399E-01   6.9499E+01  0.000E+00  0.000E+00  0.000E+00  1.05931E+03  2.233E+00  1.200E+01  6.000E-02  1.744E+00
   1    8    6     2     5    6.9499E+01  3.1363E-01   6.9185E+01  0.000E+00  0.000E+00  0.000E+00  1.05459E+03  2.227E+00  1.200E+01  6.000E-02  1.742E+00
   1    3    5     3     1    2.0000E+00  2.8252E-01   1.7175E+00  0.000E+00  0.000E+00  0.000E+00  1.07555E+03  1.909E+00  9.636E+00  7.227E-02  1.955E+00
   1    3    6     3     2    1.7175E+00  2.4905E-01   1.4684E+00  0.000E+00  0.000E+00  0.000E+00  1.07264E+03  1.727E+00  8.909E+00  6.682E-02  1.864E+00
   1    3    7     3     3    1.4684E+00  1.9718E-01   1.2712E+00  0.000E+00  0.000E+00  0.000E+00  1.06987E+03  1.555E+00  8.218E+00  5.547E-02  1.777E+00
   1    4    8     3     4    1.2712E+00  2.2567E-01   1.0456E+00  0.000E+00  0.000E+00  0.000E+00  1.06682E+03  1.364E+00  7.455E+00  6.709E-02  1.682E+00
   1    5    8     3     5    1.0456E+00  1.5790E-01   8.8768E-01  0.000E+00  0.000E+00  0.000E+00  1.06362E+03  1.164E+00  6.655E+00  4.991E-02  1.582E+00
   1    6    8     3     6    8.8768E-01  5.5980E-02   8.3170E-01  0.000E+00  0.000E+00  0.000E+00  1.06158E+03  1.036E+00  6.145E+00  1.844E-02  1.518E+00
   1    5   10     4     1    1.0000E+01  9.0919E-02   9.9091E+00  0.000E+00  0.000E+00  0.000E+00  1.07836E+03  6.368E-01  1.000E+01  2.500E-02  1.212E+00
   1    5    9     4     2    9.9091E+00  1.8158E-01   9.7275E+00  0.000E+00  0.000E+00  0.000E+00  1.07154E+03  6.315E-01  1.000E+01  5.000E-02  1.211E+00
   1    6    8     4     3    9.7275E+00  1.2689E-01   9.6006E+00  0.000E+00  0.000E+00  0.000E+00  1.06381E+03  6.256E-01  1.000E+01  3.500E-02  1.209E+00
   1    6    8     5     1    1.0432E+01  2.2686E-01   1.0205E+01  0.000E+00  0.000E+00  0.000E+00  1.05868E+03  6.790E-01  1.542E+01  6.166E-02  1.226E+00
   1    7    7     5     2    1.0205E+01  2.7894E-01   9.9265E+00  0.000E+00  0.000E+00  0.000E+00  1.05417E+03  6.732E-01  1.519E+01  7.594E-02  1.224E+00
   1    8    7     5     3    9.9265E+00  1.9221E-01   9.7343E+00  0.000E+00  0.000E+00  0.000E+00  1.04992E+03  6.676E-01  1.497E+01  5.241E-02  1.223E+00
   1    8    6     5     4    9.7343E+00  1.3577E-01   9.5985E+00  0.000E+00  0.000E+00  0.000E+00  1.04691E+03  6.637E-01  1.482E+01  3.706E-02  1.221E+00
   1    9    6     6     1    7.8784E+01  3.2569E-01   7.8458E+01  0.000E+00  0.000E+00  0.000E+00  1.04516E+03  2.428E+00  1.200E+01  6.000E-02  1.809E+00
   1   10    7     6     2    7.8458E+01  3.2533E-01   7.8133E+01  0.000E+00  0.000E+00  0.000E+00  1.04060E+03  2.422E+00  1.200E+01  6.000E-02  1.807E+00
   1   11    7     6     3    7.8133E+01  3.2497E-01   7.7808E+01  0.000E+00  0.000E+00  0.000E+00  1.03605E+03  2.416E+00  1.200E+01  6.000E-02  1.805E+00
   1   12    7     6     4    7.7808E+01  3.2461E-01   7.7483E+01  0.000E+00  0.000E+00  0.000E+00  1.03150E+03  2.410E+00  1.200E+01  6.000E-02  1.803E+00
   1   13    7     6     5    7.7483E+01  2.5997E-02   7.7457E+01  0.000E+00  0.000E+00  0.000E+00  1.02832E+03  2.407E+00  1.200E+01  2.400E-02  3.611E-01
   1   14    9     7     1    1.5000E+02  1.3318E+00   1.4867E+02  0.000E+00  0.000E+00  0.000E+00  1.03987E+03  2.288E+00  5.529E+01  5.593E-01  7.937E-01
   1   13    8     7     2    1.4867E+02  1.8022E+00   1.4687E+02  0.000E+00  0.000E+00  0.000E+00  1.03478E+03  2.279E+00  5.526E+01  6.148E-01  9.772E-01
   1   13    7     7     3    1.4687E+02  1.3725E+00   1.4549E+02  0.000E+00  0.000E+00  0.000E+00  1.02969E+03  2.271E+00  5.522E+01  5.585E-01  8.192E-01
   1   13    6     8     1    2.2295E+02  1.0174E+00   2.2193E+02  0.000E+00  0.000E+00  0.000E+00  1.02514E+03  3.265E+00  4.735E+01  4.825E-01  7.028E-01
   1   13    5     8     2    2.2193E+02  1.9745E-01   2.2174E+02  0.000E+00  0.000E+00  0.000E+00  1.01889E+03  3.262E+00  4.730E+01  4.820E-01  1.366E-01
   1   13    4     8     3    2.2174E+02 -2.0673E+00   2.2380E+02  0.000E+00  0.000E+00  0.000E+00  1.01264E+03  3.267E+00  4.737E+01  4.828E+00 -1.427E-01
   1   13    3     8     4    2.2380E+02 -3.2221E+00   2.2703E+02  0.000E+00  0.000E+00  0.000E+00  1.00641E+03  3.282E+00  4.758E+01  4.849E+00 -2.215E-01
   1   13    2     8     5    2.2703E+02 -2.6521E+00   2.2968E+02  0.000E+00  0.000E+00  0.000E+00  1.00017E+03  3.298E+00  4.782E+01  4.873E+00 -1.814E-01
   1   13    1     8     6    2.2968E+02 -2.0559E+00   2.3173E+02  0.000E+00  0.000E+00  0.000E+00  9.95185E+02  3.310E+00  4.800E+01  2.935E+00 -2.335E-01



 UBDSV3 SAVING "           GW ET" ON UNIT  61 AT TIME STEP  1, STRESS PERIOD   8
 UBDSV3 SAVING "    UZF RECHARGE" ON UNIT  61 AT TIME STEP  1, STRESS PERIOD   8
 UBDSV3 SAVING " SURFACE LEAKAGE" ON UNIT  61 AT TIME STEP  1, STRESS PERIOD   8
 UBDSV3 SAVING "       HORT+DUNN" ON UNIT  61 AT TIME STEP  1, STRESS PERIOD   8
 UBDSV3 SAVING "  STORAGE CHANGE" ON UNIT  61 AT TIME STEP  1, STRESS PERIOD   8


UNSATURATED ZONE PACKAGE VOLUMETRIC BUDGET FOR  TIME STEP     1 STRESS PERIOD    8
  ------------------------------------------------------------------------------



     CUMULATIVE VOLUMES      L**3       RATES FOR THIS TIME STEP      L**3/T
     ------------------                 ------------------------

           IN:                                      IN:
           ---                                      ---
        INFILTRATION =   109703001.6574          INFILTRATION =          88.1754

          OUT:                                     OUT:
          ----                                     ----
              UZF ET =   107228207.9442                UZF ET =          60.7922
        UZF RECHARGE =       73224.0000          UZF RECHARGE =       0.0000E+00

            IN - OUT =     2401569.7132              IN - OUT =          27.3832

          STORAGE:                                 STORAGE:
          --------                                 --------
      STORAGE CHANGE =     2401569.5037        STORAGE CHANGE =          27.3832

 PERCENT DISCREPANCY IS DIFFERENCE BETWEEN IN-OUT MINUS CHANGE IN STORAGE
 DIVIDED BY THE AVERAGE OF IN AND OUT TIMES 100

 PERCENT DISCREPANCY =           0.00     PERCENT DISCREPANCY =           0.00






 

            AG WELLS      PERIOD    8   STEP   1
 AG WELL      1   LAYER   1   ROW     6   COL     4   RATE    -14.5546    
 AG WELL      2   LAYER   1   ROW     6   COL     5   RATE    -14.5546    
 AG WELL      3   LAYER   1   ROW     7   COL     4   RATE    -14.5546    
 AG WELL      4   LAYER   1   ROW     7   COL     5   RATE    -14.5546    
 AG WELL      5   LAYER   1   ROW     8   COL     4   RATE    -14.5546    
 AG WELL      6   LAYER   1   ROW     8   COL     5   RATE    -14.5546    
 
 

        GW IRRIGATION     PERIOD    8   STEP   1
 AG WELL      1   ROW     6   COL     4   RATE     14.5546    
 AG WELL      2   ROW     6   COL     5   RATE     14.5546    
 AG WELL      3   ROW     7   COL     4   RATE     14.5546    
 AG WELL      4   ROW     7   COL     5   RATE     14.5546    
 AG WELL      5   ROW     8   COL     4   RATE     14.5546    
 AG WELL      6   ROW     8   COL     5   RATE     14.5546    
 
1
  VOLUMETRIC BUDGET FOR AGRICULTURAL FIELDS AT  END OF TIME STEP    1, STRESS PERIOD   8
  ------------------------------------------------------------------------------

     CUMULATIVE VOLUMES      L**3       RATES FOR THIS TIME STEP      L**3/T
     ------------------                 ------------------------

           IN:                                      IN:
           ---                                      ---
               AG WELLS  =    96181976.0000                 AG WELLS  =          87.3279
      DIVERSION SEGMENTS =           0.0000        DIVERSION SEGMENTS =           0.0000
           GW IRRIGATION =           0.0000             GW IRRIGATION =           0.0000
           SW IRRIGATION =           0.0000             SW IRRIGATION =           0.0000
        SYSTEM LOSSES GW =           0.0000          SYSTEM LOSSES GW =           0.0000
        SYSTEM LOSSES SW =           0.0000          SYSTEM LOSSES SW =           0.0000

                TOTAL IN =    96181976.0000                  TOTAL IN =          87.3279

          OUT:                                     OUT:
          ----                                     ----
               AG WELLS  =           0.0000                 AG WELLS  =           0.0000
      DIVERSION SEGMENTS =           0.0000        DIVERSION SEGMENTS =           0.0000
           GW IRRIGATION =    96181976.0000             GW IRRIGATION =          87.3279
           SW IRRIGATION =           0.0000             SW IRRIGATION =           0.0000
        SYSTEM LOSSES GW =           0.0000          SYSTEM LOSSES GW =           0.0000
        SYSTEM LOSSES SW =           0.0000          SYSTEM LOSSES SW =           0.0000

               TOTAL OUT =    96181976.0000                 TOTAL OUT =          87.3279

                IN - OUT =           0.0000                  IN - OUT =           0.0000

     PERCENT DISCREPANCY =           0.00         PERCENT DISCREPANCY =           0.00



1
  VOLUMETRIC BUDGET FOR ENTIRE MODEL AT END OF TIME STEP    1, STRESS PERIOD   8
  ------------------------------------------------------------------------------

     CUMULATIVE VOLUMES      L**3       RATES FOR THIS TIME STEP      L**3/T
     ------------------                 ------------------------

           IN:                                      IN:
           ---                                      ---
             STORAGE     =   102172496.0000               STORAGE     =          88.4103
       CONSTANT HEAD     =           0.0000         CONSTANT HEAD     =           0.0000
     HEAD DEP BOUNDS     =     4554132.0000       HEAD DEP BOUNDS     =           0.2855
      STREAM LEAKAGE     =   203367344.0000        STREAM LEAKAGE     =          13.2645
        UZF RECHARGE     =       73223.9531          UZF RECHARGE     =           0.0000
               GW ET     =           0.0000                 GW ET     =           0.0000
     SURFACE LEAKAGE     =           0.0000       SURFACE LEAKAGE     =           0.0000
           AG WELLS      =           0.0000             AG WELLS      =           0.0000

                TOTAL IN =   310167168.0000                  TOTAL IN =         101.9603

          OUT:                                     OUT:
          ----                                     ----
             STORAGE     =    41894932.0000               STORAGE     =           1.5044
       CONSTANT HEAD     =           0.0000         CONSTANT HEAD     =           0.0000
     HEAD DEP BOUNDS     =     4700375.0000       HEAD DEP BOUNDS     =           0.2997
      STREAM LEAKAGE     =   161223520.0000        STREAM LEAKAGE     =           9.9973
        UZF RECHARGE     =           0.0000          UZF RECHARGE     =           0.0000
               GW ET     =     6169000.0000                 GW ET     =           2.8299
     SURFACE LEAKAGE     =           0.0000       SURFACE LEAKAGE     =           0.0000
           AG WELLS      =    96181976.0000             AG WELLS      =          87.3279

               TOTAL OUT =   310169824.0000                 TOTAL OUT =         101.9591

                IN - OUT =       -2656.0000                  IN - OUT =       1.1826E-03

     PERCENT DISCREPANCY =          -0.00         PERCENT DISCREPANCY =           0.00






         TIME SUMMARY AT END OF TIME STEP    1 IN STRESS PERIOD    8
                    SECONDS     MINUTES      HOURS       DAYS        YEARS
                    -----------------------------------------------------------
   TIME STEP LENGTH  87667.      1461.1      24.352      1.0147     2.77799E-03
 STRESS PERIOD TIME  87667.      1461.1      24.352      1.0147     2.77799E-03
         TOTAL TIME 1.59541E+07 2.65901E+05  4431.7      184.65     0.50555    
1
 
 SOLVING FOR HEAD 
                                                   Max.-Head-Change                         Max.-Flux-Residual
  Residual-Control   Outer-Iter.   Inner-Iter.     Column Row Layer    Maximum-Head-Change  Column Row Layer    Maximum-Flux-Residual          L2-NORM 
          0                 1           2             4    7     1      -0.1662836757E+00       4    7    1        -0.8700408714E+01      0.2007888314E+02
          0                 2           2             6    7     1       0.1847412077E-02       6    7    1         0.1013652165E+00      0.2997289147E+00
          0                 3           2             5    6     1      -0.1201001714E-01       4    7    1        -0.6498967843E+00      0.1581101060E+01
          0                 4           2             4    7     1      -0.9014377909E-02       5    7    1        -0.4987294977E+00      0.1188601707E+01
          0                 5           2             4    7     1      -0.7410948013E-02       5    7    1        -0.4097185777E+00      0.9811338433E+00
          0                 6           2             4    7     1      -0.6113365678E-02       5    7    1        -0.3379975254E+00      0.8089899838E+00
          0                 7           2             4    7     1      -0.5069493044E-02       5    7    1        -0.2802760551E+00      0.6709571932E+00
          0                 8           2             4    7     1      -0.4220585134E-02       5    7    1        -0.2333388780E+00      0.5586338528E+00
          0                 9           2             4    7     1      -0.3524951235E-02       5    7    1        -0.1948770634E+00      0.4665840755E+00
          0                10           2             4    7     1      -0.2951490103E-02       5    7    1        -0.1631708752E+00      0.3906925411E+00
                                                   Max.-Head-Change                         Max.-Flux-Residual
  Residual-Control   Outer-Iter.   Inner-Iter.     Column Row Layer    Maximum-Head-Change  Column Row Layer    Maximum-Flux-Residual          L2-NORM 
          0                11           2             4    7     1      -0.2476410980E-02       5    7    1        -0.1369046227E+00      0.3278156648E+00
          0                12           2             4    7     1      -0.2081328095E-02       5    7    1        -0.1150615705E+00      0.2755230602E+00
          0                13           2             4    7     1      -0.1751696520E-02       5    7    1        -0.9683742309E-01      0.2318911872E+00
          0                14           2             4    7     1      -0.1475977351E-02       5    7    1        -0.8159411358E-01      0.1953940469E+00
          0                15           2             4    7     1      -0.1244859448E-02       5    7    1        -0.6881678572E-01      0.1647998180E+00
          0                16           2             4    7     1      -0.1050755450E-02       5    7    1        -0.5808590869E-01      0.1391045699E+00
          0                17           2             4    7     1      -0.8874939767E-03       5    7    1        -0.4906024652E-01      0.1174917803E+00
          0                18           2             4    7     1      -0.7500210927E-03       5    7    1        -0.4146035636E-01      0.9929267609E-01
          0                19           2             4    7     1      -0.6341532392E-03       5    7    1        -0.3505492700E-01      0.8395354840E-01
          0                20           2             4    7     1      -0.5363799213E-03       5    7    1        -0.2964986828E-01      0.7100965586E-01
                                                   Max.-Head-Change                         Max.-Flux-Residual
  Residual-Control   Outer-Iter.   Inner-Iter.     Column Row Layer    Maximum-Head-Change  Column Row Layer    Maximum-Flux-Residual          L2-NORM 
          0                21           2             4    7     1      -0.4538545213E-03       5    7    1        -0.2508778378E-01      0.6008442452E-01
          0                22           2             4    7     1      -0.3841007818E-03       5    7    1        -0.2123177811E-01      0.5084978174E-01
          0                23           2             4    7     1      -0.3251631590E-03       5    7    1        -0.1797371897E-01      0.4304720610E-01
          0                24           2             4    7     1      -0.2753240415E-03       5    7    1        -0.1521865539E-01      0.3644907841E-01
          0                25           2             4    7     1      -0.2331672318E-03       5    7    1        -0.1288828696E-01      0.3086801489E-01
          0                26           2             4    7     1      -0.1974888917E-03       5    7    1        -0.1091606079E-01      0.2614460261E-01
          0                27           2             4    7     1      -0.1672839159E-03       5    7    1        -0.9246408506E-02      0.2214580677E-01
          0                28           2             4    7     1      -0.1417292066E-03       5    7    1        -0.7833822846E-02      0.1876272034E-01
          0                29           2             4    7     1      -0.1200633341E-03       5    7    1        -0.6636217308E-02      0.1589435318E-01
          0                30           1             4    7     1      -0.1017298013E-03       5    7    1        -0.5622816131E-02      0.1346727940E-01
          0                31           1             4    7     1      -0.8621554248E-04       5    7    1        -0.4765252334E-02      0.1141343459E-01

    ------------------------------------------------
       NWT REQUIRED           31 OUTER ITERATIONS 
       AND A TOTAL OF         60 INNER ITERATIONS.
    ------------------------------------------------

 NO OUTPUT CONTROL FOR STRESS PERIOD    8   TIME STEP    2
 
 SOLVING FOR HEAD 
                                                   Max.-Head-Change                         Max.-Flux-Residual
  Residual-Control   Outer-Iter.   Inner-Iter.     Column Row Layer    Maximum-Head-Change  Column Row Layer    Maximum-Flux-Residual          L2-NORM 
          0                 1           2             4    7     1      -0.1646175863E+00       4    7    1        -0.8617924302E+01      0.1959551229E+02
          0                 2           2             6    7     1       0.2121219121E-02       6    7    1         0.1166906088E+00      0.3312542764E+00
          0                 3           2             5    7     1      -0.1223110660E-01       4    7    1        -0.6493270433E+00      0.1576409570E+01
          0                 4           2             4    7     1      -0.9014855730E-02       4    7    1        -0.4991242781E+00      0.1141968408E+01
          0                 5           2             4    7     1      -0.7410951783E-02       4    7    1        -0.4100619798E+00      0.9495885473E+00
          0                 6           2             4    7     1      -0.6113384653E-02       4    7    1        -0.3382838016E+00      0.7823913380E+00
          0                 7           2             4    7     1      -0.5069508117E-02       4    7    1        -0.2805116120E+00      0.6490780366E+00
          0                 8           2             4    7     1      -0.4220597700E-02       4    7    1        -0.2335343637E+00      0.5404768971E+00
          0                 9           2             4    7     1      -0.3524961722E-02       4    7    1        -0.1950398411E+00      0.4514650280E+00
          0                10           2             4    7     1      -0.2951498880E-02       4    7    1        -0.1633068438E+00      0.3780635864E+00
                                                   Max.-Head-Change                         Max.-Flux-Residual
  Residual-Control   Outer-Iter.   Inner-Iter.     Column Row Layer    Maximum-Head-Change  Column Row Layer    Maximum-Flux-Residual          L2-NORM 
          0                11           2             4    7     1      -0.2476418341E-02       4    7    1        -0.1370184798E+00      0.3172404670E+00
          0                12           2             4    7     1      -0.2081334280E-02       4    7    1        -0.1151571034E+00      0.2666498401E+00
          0                13           2             4    7     1      -0.1751701724E-02       4    7    1        -0.9691771406E-01      0.2244336597E+00
          0                14           2             4    7     1      -0.1475981735E-02       4    7    1        -0.8166168563E-01      0.1891178719E+00
          0                15           2             4    7     1      -0.1244863145E-02       4    7    1        -0.6887371823E-01      0.1595118590E+00
          0                16           2             4    7     1      -0.1050758569E-02       4    7    1        -0.5813392236E-01      0.1346450040E+00
          0                17           2             4    7     1      -0.8874966120E-03       4    7    1        -0.4910076960E-01      0.1137279532E+00
          0                18           2             4    7     1      -0.7500233197E-03       4    7    1        -0.4149457922E-01      0.9611402104E-01
          0                19           2             4    7     1      -0.6341551215E-03       4    7    1        -0.3508384517E-01      0.8126759953E-01
          0                20           2             4    7     1      -0.5363815137E-03       4    7    1        -0.2967431582E-01      0.6873894572E-01
                                                   Max.-Head-Change                         Max.-Flux-Residual
  Residual-Control   Outer-Iter.   Inner-Iter.     Column Row Layer    Maximum-Head-Change  Column Row Layer    Maximum-Flux-Residual          L2-NORM 
          0                21           2             4    7     1      -0.4538558685E-03       4    7    1        -0.2510845903E-01      0.5816408949E-01
          0                22           2             4    7     1      -0.3841019214E-03       4    7    1        -0.2124926988E-01      0.4922513002E-01
          0                23           2             4    7     1      -0.3251641240E-03       4    7    1        -0.1798852003E-01      0.4167247489E-01
          0                24           2             4    7     1      -0.2753248590E-03       4    7    1        -0.1523118345E-01      0.3528546308E-01
          0                25           2             4    7     1      -0.2331679239E-03       4    7    1        -0.1289889311E-01      0.2988291075E-01
          0                26           2             4    7     1      -0.1974894772E-03       4    7    1        -0.1092504148E-01      0.2531046920E-01
          0                27           2             4    7     1      -0.1672844124E-03       4    7    1        -0.9254013751E-02      0.2143942856E-01
          0                28           2             4    7     1      -0.1417296273E-03       4    7    1        -0.7840263792E-02      0.1816448273E-01
          0                29           2             4    7     1      -0.1200636903E-03       4    7    1        -0.6641673476E-02      0.1538758249E-01
          0                30           1             4    7     1      -0.1017301029E-03       4    7    1        -0.5627437309E-02      0.1303806323E-01
          0                31           1             4    7     1      -0.8621579839E-04       4    7    1        -0.4769176692E-02      0.1104981571E-01

    ------------------------------------------------
       NWT REQUIRED           31 OUTER ITERATIONS 
       AND A TOTAL OF         60 INNER ITERATIONS.
    ------------------------------------------------

 NO OUTPUT CONTROL FOR STRESS PERIOD    8   TIME STEP    3
 
 SOLVING FOR HEAD 
                                                   Max.-Head-Change                         Max.-Flux-Residual
  Residual-Control   Outer-Iter.   Inner-Iter.     Column Row Layer    Maximum-Head-Change  Column Row Layer    Maximum-Flux-Residual          L2-NORM 
          0                 1           2             4    7     1      -0.1628807711E+00       4    7    1        -0.8531365711E+01      0.1914861812E+02
          0                 2           2             6    7     1       0.2382267913E-02       6    7    1         0.1313157951E+00      0.3754046959E+00
          0                 3           2             5    7     1      -0.1219710045E-01       4    7    1        -0.6487471951E+00      0.1571405569E+01
          0                 4           2             4    7     1      -0.9015354889E-02       4    7    1        -0.4991420290E+00      0.1142449101E+01
          0                 5           2             4    7     1      -0.7410955860E-02       4    7    1        -0.4100611911E+00      0.9495411288E+00
          0                 6           2             4    7     1      -0.6113404693E-02       4    7    1        -0.3382833004E+00      0.7823960449E+00
          0                 7           2             4    7     1      -0.5069524050E-02       4    7    1        -0.2805112407E+00      0.6490775649E+00
          0                 8           2             4    7     1      -0.4220610992E-02       4    7    1        -0.2335340491E+00      0.5404769425E+00
          0                 9           2             4    7     1      -0.3524972823E-02       4    7    1        -0.1950395799E+00      0.4514650221E+00
          0                10           2             4    7     1      -0.2951508174E-02       4    7    1        -0.1633066255E+00      0.3780635858E+00
                                                   Max.-Head-Change                         Max.-Flux-Residual
  Residual-Control   Outer-Iter.   Inner-Iter.     Column Row Layer    Maximum-Head-Change  Column Row Layer    Maximum-Flux-Residual          L2-NORM 
          0                11           2             4    7     1      -0.2476426140E-02       4    7    1        -0.1370182970E+00      0.3172404660E+00
          0                12           2             4    7     1      -0.2081340834E-02       4    7    1        -0.1151569500E+00      0.2666498394E+00
          0                13           2             4    7     1      -0.1751707241E-02       4    7    1        -0.9691758518E-01      0.2244336591E+00
          0                14           2             4    7     1      -0.1475986383E-02       4    7    1        -0.8166157714E-01      0.1891178714E+00
          0                15           2             4    7     1      -0.1244867065E-02       4    7    1        -0.6887362682E-01      0.1595118586E+00
          0                16           2             4    7     1      -0.1050761879E-02       4    7    1        -0.5813384528E-01      0.1346450036E+00
          0                17           2             4    7     1      -0.8874994066E-03       4    7    1        -0.4910070453E-01      0.1137279529E+00
          0                18           2             4    7     1      -0.7500256818E-03       4    7    1        -0.4149452429E-01      0.9611402080E-01
          0                19           2             4    7     1      -0.6341571182E-03       4    7    1        -0.3508379873E-01      0.8126759933E-01
          0                20           2             4    7     1      -0.5363832029E-03       4    7    1        -0.2967427658E-01      0.6873894555E-01
                                                   Max.-Head-Change                         Max.-Flux-Residual
  Residual-Control   Outer-Iter.   Inner-Iter.     Column Row Layer    Maximum-Head-Change  Column Row Layer    Maximum-Flux-Residual          L2-NORM 
          0                21           2             4    7     1      -0.4538572976E-03       4    7    1        -0.2510842585E-01      0.5816408935E-01
          0                22           2             4    7     1      -0.3841031315E-03       4    7    1        -0.2124924181E-01      0.4922512992E-01
          0                23           2             4    7     1      -0.3251651476E-03       4    7    1        -0.1798849625E-01      0.4167247477E-01
          0                24           2             4    7     1      -0.2753257260E-03       4    7    1        -0.1523116335E-01      0.3528546300E-01
          0                25           2             4    7     1      -0.2331686583E-03       4    7    1        -0.1289887608E-01      0.2988291071E-01
          0                26           2             4    7     1      -0.1974900989E-03       4    7    1        -0.1092502706E-01      0.2531046914E-01
          0                27           2             4    7     1      -0.1672849399E-03       4    7    1        -0.9254001564E-02      0.2143942853E-01
          0                28           2             4    7     1      -0.1417300734E-03       4    7    1        -0.7840253439E-02      0.1816448271E-01
          0                29           2             4    7     1      -0.1200640685E-03       4    7    1        -0.6641664705E-02      0.1538758248E-01
          0                30           1             4    7     1      -0.1017304232E-03       4    7    1        -0.5627429879E-02      0.1303806323E-01
          0                31           1             4    7     1      -0.8621606981E-04       4    7    1        -0.4769170404E-02      0.1104981568E-01

    ------------------------------------------------
       NWT REQUIRED           31 OUTER ITERATIONS 
       AND A TOTAL OF         60 INNER ITERATIONS.
    ------------------------------------------------

 NO OUTPUT CONTROL FOR STRESS PERIOD    8   TIME STEP    4
 
 SOLVING FOR HEAD 
                                                   Max.-Head-Change                         Max.-Flux-Residual
  Residual-Control   Outer-Iter.   Inner-Iter.     Column Row Layer    Maximum-Head-Change  Column Row Layer    Maximum-Flux-Residual          L2-NORM 
          0                 1           2             4    7     1      -0.1610801813E+00       4    7    1        -0.8441114851E+01      0.1873143270E+02
          0                 2           2             6    7     1       0.2630942386E-02       6    7    1         0.1452604540E+00      0.4246333433E+00
          0                 3           2             5    7     1      -0.1216363195E-01       4    7    1        -0.6481408482E+00      0.1566585209E+01
          0                 4           2             4    7     1      -0.9015872835E-02       4    7    1        -0.4991610102E+00      0.1142912002E+01
          0                 5           2             4    7     1      -0.7410960472E-02       4    7    1        -0.4100603495E+00      0.9494955222E+00
          0                 6           2             4    7     1      -0.6113425788E-02       4    7    1        -0.3382828115E+00      0.7824005720E+00
          0                 7           2             4    7     1      -0.5069540830E-02       4    7    1        -0.2805108762E+00      0.6490771131E+00
          0                 8           2             4    7     1      -0.4220624993E-02       4    7    1        -0.2335337403E+00      0.5404769874E+00
          0                 9           2             4    7     1      -0.3524984515E-02       4    7    1        -0.1950393235E+00      0.4514650174E+00
          0                10           2             4    7     1      -0.2951517964E-02       4    7    1        -0.1633064113E+00      0.3780635862E+00
                                                   Max.-Head-Change                         Max.-Flux-Residual
  Residual-Control   Outer-Iter.   Inner-Iter.     Column Row Layer    Maximum-Head-Change  Column Row Layer    Maximum-Flux-Residual          L2-NORM 
          0                11           2             4    7     1      -0.2476434353E-02       4    7    1        -0.1370181176E+00      0.3172404659E+00
          0                12           2             4    7     1      -0.2081347738E-02       4    7    1        -0.1151567995E+00      0.2666498393E+00
          0                13           2             4    7     1      -0.1751713050E-02       4    7    1        -0.9691745865E-01      0.2244336590E+00
          0                14           2             4    7     1      -0.1475991278E-02       4    7    1        -0.8166147069E-01      0.1891178714E+00
          0                15           2             4    7     1      -0.1244871194E-02       4    7    1        -0.6887353714E-01      0.1595118586E+00
          0                16           2             4    7     1      -0.1050765364E-02       4    7    1        -0.5813376965E-01      0.1346450036E+00
          0                17           2             4    7     1      -0.8875023505E-03       4    7    1        -0.4910064069E-01      0.1137279528E+00
          0                18           2             4    7     1      -0.7500281693E-03       4    7    1        -0.4149447035E-01      0.9611402078E-01
          0                19           2             4    7     1      -0.6341592221E-03       4    7    1        -0.3508375318E-01      0.8126759932E-01
          0                20           2             4    7     1      -0.5363849817E-03       4    7    1        -0.2967423804E-01      0.6873894553E-01
                                                   Max.-Head-Change                         Max.-Flux-Residual
  Residual-Control   Outer-Iter.   Inner-Iter.     Column Row Layer    Maximum-Head-Change  Column Row Layer    Maximum-Flux-Residual          L2-NORM 
          0                21           2             4    7     1      -0.4538588029E-03       4    7    1        -0.2510839326E-01      0.5816408933E-01
          0                22           2             4    7     1      -0.3841044056E-03       4    7    1        -0.2124921425E-01      0.4922512989E-01
          0                23           2             4    7     1      -0.3251662264E-03       4    7    1        -0.1798847293E-01      0.4167247477E-01
          0                24           2             4    7     1      -0.2753266390E-03       4    7    1        -0.1523114358E-01      0.3528546300E-01
          0                25           2             4    7     1      -0.2331694312E-03       4    7    1        -0.1289885936E-01      0.2988291066E-01
          0                26           2             4    7     1      -0.1974907545E-03       4    7    1        -0.1092501293E-01      0.2531046915E-01
          0                27           2             4    7     1      -0.1672854944E-03       4    7    1        -0.9253989569E-02      0.2143942852E-01
          0                28           2             4    7     1      -0.1417305436E-03       4    7    1        -0.7840243292E-02      0.1816448269E-01
          0                29           2             4    7     1      -0.1200644667E-03       4    7    1        -0.6641656106E-02      0.1538758245E-01
          0                30           1             4    7     1      -0.1017307605E-03       4    7    1        -0.5627422593E-02      0.1303806321E-01
          0                31           1             4    7     1      -0.8621635579E-04       4    7    1        -0.4769164231E-02      0.1104981567E-01

    ------------------------------------------------
       NWT REQUIRED           31 OUTER ITERATIONS 
       AND A TOTAL OF         60 INNER ITERATIONS.
    ------------------------------------------------

 OUTPUT CONTROL FOR STRESS PERIOD    8   TIME STEP    5
    PRINT BUDGET
    SAVE BUDGET
 UBDSV1 SAVING "         STORAGE" ON UNIT 102 AT TIME STEP  5, STRESS PERIOD   8
 UBDSV2 SAVING "   CONSTANT HEAD" ON UNIT 102 AT TIME STEP  5, STRESS PERIOD   8
 UBDSV1 SAVING "FLOW RIGHT FACE " ON UNIT 102 AT TIME STEP  5, STRESS PERIOD   8
 UBDSV1 SAVING "FLOW FRONT FACE " ON UNIT 102 AT TIME STEP  5, STRESS PERIOD   8

  HEAD DEP BOUNDS   PERIOD    8   STEP     5
 BOUNDARY      1   LAYER   1   ROW    13   COL     1   RATE   -0.299426    
 BOUNDARY      2   LAYER   1   ROW    14   COL     9   RATE    0.285483    



 STREAM LISTING     PERIOD      8   STEP        5

 LAYER ROW COL. STREAM  RCH.  FLOW INTO     FLOW TO   FLOW OUT OF   OVRLND.     DIRECT     STREAM       STREAM     STREAM     STREAM   STREAMBED  STREAMBED
                SEG.NO.  NO.  STRM. RCH.    AQUIFER    STRM. RCH.    RUNOFF     PRECIP       ET          HEAD       DEPTH      WIDTH   CONDCTNC.   GRADIENT

   1    1    1     1     1    7.5000E+01  4.2232E-01   7.4578E+01  0.000E+00  0.000E+00  0.000E+00  1.09475E+03  1.698E+00  1.998E+01  8.990E-02  1.566E+00
   1    2    2     1     2    7.4578E+01  6.5422E-01   7.3924E+01  0.000E+00  0.000E+00  0.000E+00  1.08975E+03  1.692E+00  1.992E+01  1.394E-01  1.564E+00
   1    3    3     1     3    7.3924E+01  5.5813E-01   7.3366E+01  0.000E+00  0.000E+00  0.000E+00  1.08410E+03  1.685E+00  1.985E+01  1.191E-01  1.562E+00
   1    3    4     1     4    7.3366E+01  5.1412E-01   7.2852E+01  0.000E+00  0.000E+00  0.000E+00  1.07909E+03  1.679E+00  1.980E+01  1.099E-01  1.560E+00
   1    4    5     2     1    7.0852E+01  4.0967E-01   7.0442E+01  0.000E+00  0.000E+00  0.000E+00  1.07419E+03  2.252E+00  1.200E+01  7.800E-02  1.751E+00
   1    5    6     2     2    7.0442E+01  3.1471E-01   7.0127E+01  0.000E+00  0.000E+00  0.000E+00  1.06875E+03  2.245E+00  1.200E+01  6.000E-02  1.748E+00
   1    6    6     2     3    7.0127E+01  3.1435E-01   6.9813E+01  0.000E+00  0.000E+00  0.000E+00  1.06403E+03  2.239E+00  1.200E+01  6.000E-02  1.746E+00
   1    7    6     2     4    6.9813E+01  3.1399E-01   6.9499E+01  0.000E+00  0.000E+00  0.000E+00  1.05931E+03  2.233E+00  1.200E+01  6.000E-02  1.744E+00
   1    8    6     2     5    6.9499E+01  3.1363E-01   6.9185E+01  0.000E+00  0.000E+00  0.000E+00  1.05459E+03  2.227E+00  1.200E+01  6.000E-02  1.742E+00
   1    3    5     3     1    2.0000E+00  2.8252E-01   1.7175E+00  0.000E+00  0.000E+00  0.000E+00  1.07555E+03  1.909E+00  9.636E+00  7.227E-02  1.955E+00
   1    3    6     3     2    1.7175E+00  2.4905E-01   1.4684E+00  0.000E+00  0.000E+00  0.000E+00  1.07264E+03  1.727E+00  8.909E+00  6.682E-02  1.864E+00
   1    3    7     3     3    1.4684E+00  1.9718E-01   1.2712E+00  0.000E+00  0.000E+00  0.000E+00  1.06987E+03  1.555E+00  8.218E+00  5.547E-02  1.777E+00
   1    4    8     3     4    1.2712E+00  2.2567E-01   1.0456E+00  0.000E+00  0.000E+00  0.000E+00  1.06682E+03  1.364E+00  7.455E+00  6.709E-02  1.682E+00
   1    5    8     3     5    1.0456E+00  1.5790E-01   8.8768E-01  0.000E+00  0.000E+00  0.000E+00  1.06362E+03  1.164E+00  6.655E+00  4.991E-02  1.582E+00
   1    6    8     3     6    8.8768E-01  5.5980E-02   8.3170E-01  0.000E+00  0.000E+00  0.000E+00  1.06158E+03  1.036E+00  6.145E+00  1.844E-02  1.518E+00
   1    5   10     4     1    1.0000E+01  9.0919E-02   9.9091E+00  0.000E+00  0.000E+00  0.000E+00  1.07836E+03  6.368E-01  1.000E+01  2.500E-02  1.212E+00
   1    5    9     4     2    9.9091E+00  1.8158E-01   9.7275E+00  0.000E+00  0.000E+00  0.000E+00  1.07154E+03  6.315E-01  1.000E+01  5.000E-02  1.211E+00
   1    6    8     4     3    9.7275E+00  1.2689E-01   9.6006E+00  0.000E+00  0.000E+00  0.000E+00  1.06381E+03  6.256E-01  1.000E+01  3.500E-02  1.209E+00
   1    6    8     5     1    1.0432E+01  2.2686E-01   1.0205E+01  0.000E+00  0.000E+00  0.000E+00  1.05868E+03  6.790E-01  1.542E+01  6.166E-02  1.226E+00
   1    7    7     5     2    1.0205E+01  2.7894E-01   9.9265E+00  0.000E+00  0.000E+00  0.000E+00  1.05417E+03  6.732E-01  1.519E+01  7.594E-02  1.224E+00
   1    8    7     5     3    9.9265E+00  1.9221E-01   9.7343E+00  0.000E+00  0.000E+00  0.000E+00  1.04992E+03  6.676E-01  1.497E+01  5.241E-02  1.223E+00
   1    8    6     5     4    9.7343E+00  1.3577E-01   9.5985E+00  0.000E+00  0.000E+00  0.000E+00  1.04691E+03  6.637E-01  1.482E+01  3.706E-02  1.221E+00
   1    9    6     6     1    7.8784E+01  3.2569E-01   7.8458E+01  0.000E+00  0.000E+00  0.000E+00  1.04516E+03  2.428E+00  1.200E+01  6.000E-02  1.809E+00
   1   10    7     6     2    7.8458E+01  3.2533E-01   7.8133E+01  0.000E+00  0.000E+00  0.000E+00  1.04060E+03  2.422E+00  1.200E+01  6.000E-02  1.807E+00
   1   11    7     6     3    7.8133E+01  3.2497E-01   7.7808E+01  0.000E+00  0.000E+00  0.000E+00  1.03605E+03  2.416E+00  1.200E+01  6.000E-02  1.805E+00
   1   12    7     6     4    7.7808E+01  3.2461E-01   7.7483E+01  0.000E+00  0.000E+00  0.000E+00  1.03150E+03  2.410E+00  1.200E+01  6.000E-02  1.803E+00
   1   13    7     6     5    7.7483E+01  2.5951E-02   7.7457E+01  0.000E+00  0.000E+00  0.000E+00  1.02832E+03  2.407E+00  1.200E+01  2.400E-02  3.604E-01
   1   14    9     7     1    1.5000E+02  1.3318E+00   1.4867E+02  0.000E+00  0.000E+00  0.000E+00  1.03987E+03  2.288E+00  5.529E+01  5.593E-01  7.937E-01
   1   13    8     7     2    1.4867E+02  1.8017E+00   1.4687E+02  0.000E+00  0.000E+00  0.000E+00  1.03478E+03  2.279E+00  5.526E+01  6.148E-01  9.769E-01
   1   13    7     7     3    1.4687E+02  1.3714E+00   1.4550E+02  0.000E+00  0.000E+00  0.000E+00  1.02969E+03  2.271E+00  5.522E+01  5.585E-01  8.185E-01
   1   13    6     8     1    2.2295E+02  1.0172E+00   2.2194E+02  0.000E+00  0.000E+00  0.000E+00  1.02514E+03  3.265E+00  4.735E+01  4.825E-01  7.028E-01
   1   13    5     8     2    2.2194E+02  1.9833E-01   2.2174E+02  0.000E+00  0.000E+00  0.000E+00  1.01889E+03  3.262E+00  4.730E+01  4.820E-01  1.372E-01
   1   13    4     8     3    2.2174E+02 -1.9497E+00   2.2369E+02  0.000E+00  0.000E+00  0.000E+00  1.01264E+03  3.267E+00  4.737E+01  4.827E+00 -1.346E-01
   1   13    3     8     4    2.2369E+02 -3.1042E+00   2.2679E+02  0.000E+00  0.000E+00  0.000E+00  1.00641E+03  3.281E+00  4.757E+01  4.848E+00 -2.135E-01
   1   13    2     8     5    2.2679E+02 -2.6097E+00   2.2940E+02  0.000E+00  0.000E+00  0.000E+00  1.00017E+03  3.296E+00  4.780E+01  4.871E+00 -1.786E-01
   1   13    1     8     6    2.2940E+02 -2.0412E+00   2.3144E+02  0.000E+00  0.000E+00  0.000E+00  9.95184E+02  3.309E+00  4.798E+01  2.933E+00 -2.319E-01



 UBDSV3 SAVING "           GW ET" ON UNIT  61 AT TIME STEP  5, STRESS PERIOD   8
 UBDSV3 SAVING "    UZF RECHARGE" ON UNIT  61 AT TIME STEP  5, STRESS PERIOD   8
 UBDSV3 SAVING " SURFACE LEAKAGE" ON UNIT  61 AT TIME STEP  5, STRESS PERIOD   8
 UBDSV3 SAVING "       HORT+DUNN" ON UNIT  61 AT TIME STEP  5, STRESS PERIOD   8
 UBDSV3 SAVING "  STORAGE CHANGE" ON UNIT  61 AT TIME STEP  5, STRESS PERIOD   8


UNSATURATED ZONE PACKAGE VOLUMETRIC BUDGET FOR  TIME STEP     5 STRESS PERIOD    8
  ------------------------------------------------------------------------------



     CUMULATIVE VOLUMES      L**3       RATES FOR THIS TIME STEP      L**3/T
     ------------------                 ------------------------

           IN:                                      IN:
           ---                                      ---
        INFILTRATION =   140623163.6409          INFILTRATION =          88.1754

          OUT:                                     OUT:
          ----                                     ----
              UZF ET =   128545987.9277                UZF ET =          60.7922
        UZF RECHARGE =       73224.0000          UZF RECHARGE =       0.0000E+00

            IN - OUT =    12003951.7132              IN - OUT =          27.3832

          STORAGE:                                 STORAGE:
          --------                                 --------
      STORAGE CHANGE =    12003950.5535        STORAGE CHANGE =          27.3832

 PERCENT DISCREPANCY IS DIFFERENCE BETWEEN IN-OUT MINUS CHANGE IN STORAGE
 DIVIDED BY THE AVERAGE OF IN AND OUT TIMES 100

 PERCENT DISCREPANCY =           0.00     PERCENT DISCREPANCY =           0.00






 

            AG WELLS      PERIOD    8   STEP   5
 AG WELL      1   LAYER   1   ROW     6   COL     4   RATE    -14.5546    
 AG WELL      2   LAYER   1   ROW     6   COL     5   RATE    -14.5546    
 AG WELL      3   LAYER   1   ROW     7   COL     4   RATE    -14.5546    
 AG WELL      4   LAYER   1   ROW     7   COL     5   RATE    -14.5546    
 AG WELL      5   LAYER   1   ROW     8   COL     4   RATE    -14.5546    
 AG WELL      6   LAYER   1   ROW     8   COL     5   RATE    -14.5546    
 
 

        GW IRRIGATION     PERIOD    8   STEP   5
 AG WELL      1   ROW     6   COL     4   RATE     14.5546    
 AG WELL      2   ROW     6   COL     5   RATE     14.5546    
 AG WELL      3   ROW     7   COL     4   RATE     14.5546    
 AG WELL      4   ROW     7   COL     5   RATE     14.5546    
 AG WELL      5   ROW     8   COL     4   RATE     14.5546    
 AG WELL      6   ROW     8   COL     5   RATE     14.5546    
 
1
  VOLUMETRIC BUDGET FOR AGRICULTURAL FIELDS AT  END OF TIME STEP    5, STRESS PERIOD   8
  ------------------------------------------------------------------------------

     CUMULATIVE VOLUMES      L**3       RATES FOR THIS TIME STEP      L**3/T
     ------------------                 ------------------------

           IN:                                      IN:
           ---                                      ---
               AG WELLS  =   126804952.0000                 AG WELLS  =          87.3279
      DIVERSION SEGMENTS =           0.0000        DIVERSION SEGMENTS =           0.0000
           GW IRRIGATION =           0.0000             GW IRRIGATION =           0.0000
           SW IRRIGATION =           0.0000             SW IRRIGATION =           0.0000
        SYSTEM LOSSES GW =           0.0000          SYSTEM LOSSES GW =           0.0000
        SYSTEM LOSSES SW =           0.0000          SYSTEM LOSSES SW =           0.0000

                TOTAL IN =   126804952.0000                  TOTAL IN =          87.3279

          OUT:                                     OUT:
          ----                                     ----
               AG WELLS  =           0.0000                 AG WELLS  =           0.0000
      DIVERSION SEGMENTS =           0.0000        DIVERSION SEGMENTS =           0.0000
           GW IRRIGATION =   126804952.0000             GW IRRIGATION =          87.3279
           SW IRRIGATION =           0.0000             SW IRRIGATION =           0.0000
        SYSTEM LOSSES GW =           0.0000          SYSTEM LOSSES GW =           0.0000
        SYSTEM LOSSES SW =           0.0000          SYSTEM LOSSES SW =           0.0000

               TOTAL OUT =   126804952.0000                 TOTAL OUT =          87.3279

                IN - OUT =           0.0000                  IN - OUT =           0.0000

     PERCENT DISCREPANCY =           0.00         PERCENT DISCREPANCY =           0.00



1
  VOLUMETRIC BUDGET FOR ENTIRE MODEL AT END OF TIME STEP    5, STRESS PERIOD   8
  ------------------------------------------------------------------------------

     CUMULATIVE VOLUMES      L**3       RATES FOR THIS TIME STEP      L**3/T
     ------------------                 ------------------------

           IN:                                      IN:
           ---                                      ---
             STORAGE     =   132833040.0000               STORAGE     =          87.0718
       CONSTANT HEAD     =           0.0000         CONSTANT HEAD     =           0.0000
     HEAD DEP BOUNDS     =     4654242.0000       HEAD DEP BOUNDS     =           0.2855
      STREAM LEAKAGE     =   208018544.0000        STREAM LEAKAGE     =          13.2635
        UZF RECHARGE     =       73223.9531          UZF RECHARGE     =           0.0000
               GW ET     =           0.0000                 GW ET     =           0.0000
     SURFACE LEAKAGE     =           0.0000       SURFACE LEAKAGE     =           0.0000
           AG WELLS      =           0.0000             AG WELLS      =           0.0000

                TOTAL IN =   345579040.0000                  TOTAL IN =         100.6208

          OUT:                                     OUT:
          ----                                     ----
             STORAGE     =    42410516.0000               STORAGE     =           1.4503
       CONSTANT HEAD     =           0.0000         CONSTANT HEAD     =           0.0000
     HEAD DEP BOUNDS     =     4805403.5000       HEAD DEP BOUNDS     =           0.2994
      STREAM LEAKAGE     =   164655696.0000        STREAM LEAKAGE     =           9.7047
        UZF RECHARGE     =           0.0000          UZF RECHARGE     =           0.0000
               GW ET     =     6904298.0000                 GW ET     =           1.8361
     SURFACE LEAKAGE     =           0.0000       SURFACE LEAKAGE     =           0.0000
           AG WELLS      =   126804952.0000             AG WELLS      =          87.3279

               TOTAL OUT =   345580864.0000                 TOTAL OUT =         100.6184

                IN - OUT =       -1824.0000                  IN - OUT =       2.4033E-03

     PERCENT DISCREPANCY =          -0.00         PERCENT DISCREPANCY =           0.00






         TIME SUMMARY AT END OF TIME STEP    5 IN STRESS PERIOD    8
                    SECONDS     MINUTES      HOURS       DAYS        YEARS
                    -----------------------------------------------------------
   TIME STEP LENGTH  87667.      1461.1      24.352      1.0147     2.77799E-03
 STRESS PERIOD TIME 4.38333E+05  7305.6      121.76      5.0733     1.38899E-02
         TOTAL TIME 1.63048E+07 2.71746E+05  4529.1      188.71     0.51667    
1
 
 SOLVING FOR HEAD 
                                                   Max.-Head-Change                         Max.-Flux-Residual
  Residual-Control   Outer-Iter.   Inner-Iter.     Column Row Layer    Maximum-Head-Change  Column Row Layer    Maximum-Flux-Residual          L2-NORM 
          0                 1           2             4    7     1      -0.1592229415E+00       4    7    1        -0.8347565577E+01      0.1833978425E+02
          0                 2           2             6    7     1       0.2867565399E-02       6    7    1         0.1585409722E+00      0.4753604283E+00
          0                 3           2             5    7     1      -0.1213072648E-01       4    7    1        -0.6475107714E+00      0.1561937388E+01
          0                 4           2             4    7     1      -0.9016407506E-02       4    7    1        -0.4991811053E+00      0.1143358017E+01
          0                 5           2             4    7     1      -0.7410965591E-02       4    7    1        -0.4100594598E+00      0.9494516329E+00
          0                 6           2             4    7     1      -0.6113447844E-02       4    7    1        -0.3382823346E+00      0.7824049289E+00
          0                 7           2             4    7     1      -0.5069558387E-02       4    7    1        -0.2805105181E+00      0.6490766800E+00
          0                 8           2             4    7     1      -0.4220639639E-02       4    7    1        -0.2335334372E+00      0.5404770317E+00
          0                 9           2             4    7     1      -0.3524996746E-02       4    7    1        -0.1950390718E+00      0.4514650139E+00
          0                10           2             4    7     1      -0.2951528206E-02       4    7    1        -0.1633062010E+00      0.3780635873E+00
                                                   Max.-Head-Change                         Max.-Flux-Residual
  Residual-Control   Outer-Iter.   Inner-Iter.     Column Row Layer    Maximum-Head-Change  Column Row Layer    Maximum-Flux-Residual          L2-NORM 
          0                11           2             4    7     1      -0.2476442947E-02       4    7    1        -0.1370179415E+00      0.3172404665E+00
          0                12           2             4    7     1      -0.2081354960E-02       4    7    1        -0.1151566517E+00      0.2666498398E+00
          0                13           2             4    7     1      -0.1751719129E-02       4    7    1        -0.9691733447E-01      0.2244336595E+00
          0                14           2             4    7     1      -0.1475996400E-02       4    7    1        -0.8166136616E-01      0.1891178718E+00
          0                15           2             4    7     1      -0.1244875514E-02       4    7    1        -0.6887344905E-01      0.1595118589E+00
          0                16           2             4    7     1      -0.1050769010E-02       4    7    1        -0.5813369537E-01      0.1346450039E+00
          0                17           2             4    7     1      -0.8875054301E-03       4    7    1        -0.4910057801E-01      0.1137279531E+00
          0                18           2             4    7     1      -0.7500307720E-03       4    7    1        -0.4149441742E-01      0.9611402100E-01
          0                19           2             4    7     1      -0.6341614220E-03       4    7    1        -0.3508370844E-01      0.8126759949E-01
          0                20           2             4    7     1      -0.5363868435E-03       4    7    1        -0.2967420024E-01      0.6873894568E-01
                                                   Max.-Head-Change                         Max.-Flux-Residual
  Residual-Control   Outer-Iter.   Inner-Iter.     Column Row Layer    Maximum-Head-Change  Column Row Layer    Maximum-Flux-Residual          L2-NORM 
          0                21           2             4    7     1      -0.4538603778E-03       4    7    1        -0.2510836127E-01      0.5816408946E-01
          0                22           2             4    7     1      -0.3841057384E-03       4    7    1        -0.2124918718E-01      0.4922512999E-01
          0                23           2             4    7     1      -0.3251673542E-03       4    7    1        -0.1798845001E-01      0.4167247485E-01
          0                24           2             4    7     1      -0.2753275947E-03       4    7    1        -0.1523112423E-01      0.3528546305E-01
          0                25           2             4    7     1      -0.2331702405E-03       4    7    1        -0.1289884296E-01      0.2988291074E-01
          0                26           2             4    7     1      -0.1974914398E-03       4    7    1        -0.1092499902E-01      0.2531046921E-01
          0                27           2             4    7     1      -0.1672860745E-03       4    7    1        -0.9253977787E-02      0.2143942855E-01
          0                28           2             4    7     1      -0.1417310352E-03       4    7    1        -0.7840233332E-02      0.1816448270E-01
          0                29           2             4    7     1      -0.1200648834E-03       4    7    1        -0.6641647683E-02      0.1538758251E-01
          0                30           1             4    7     1      -0.1017311140E-03       4    7    1        -0.5627415461E-02      0.1303806322E-01
          0                31           1             4    7     1      -0.8621665479E-04       4    7    1        -0.4769158162E-02      0.1104981569E-01

    ------------------------------------------------
       NWT REQUIRED           31 OUTER ITERATIONS 
       AND A TOTAL OF         60 INNER ITERATIONS.
    ------------------------------------------------

 NO OUTPUT CONTROL FOR STRESS PERIOD    8   TIME STEP    6
 
 SOLVING FOR HEAD 
                                                   Max.-Head-Change                         Max.-Flux-Residual
  Residual-Control   Outer-Iter.   Inner-Iter.     Column Row Layer    Maximum-Head-Change  Column Row Layer    Maximum-Flux-Residual          L2-NORM 
          0                 1           2             4    7     1      -0.1573154741E+00       4    7    1        -0.8251072534E+01      0.1797088092E+02
          0                 2           2             5    8     1      -0.3236803148E-02       5    8    1        -0.1812965450E+00      0.5259292008E+00
          0                 3           2             5    7     1      -0.1209840377E-01       4    7    1        -0.6468594579E+00      0.1557452617E+01
          0                 4           2             4    7     1      -0.9016957044E-02       4    7    1        -0.4992022096E+00      0.1143787965E+01
          0                 5           2             4    7     1      -0.7410971192E-02       4    7    1        -0.4100585262E+00      0.9494093754E+00
          0                 6           2             4    7     1      -0.6113470779E-02       4    7    1        -0.3382818690E+00      0.7824091239E+00
          0                 7           2             4    7     1      -0.5069576653E-02       4    7    1        -0.2805101663E+00      0.6490762646E+00
          0                 8           2             4    7     1      -0.4220654877E-02       4    7    1        -0.2335331395E+00      0.5404770756E+00
          0                 9           2             4    7     1      -0.3525009471E-02       4    7    1        -0.1950388246E+00      0.4514650116E+00
          0                10           2             4    7     1      -0.2951538860E-02       4    7    1        -0.1633059944E+00      0.3780635892E+00
                                                   Max.-Head-Change                         Max.-Flux-Residual
  Residual-Control   Outer-Iter.   Inner-Iter.     Column Row Layer    Maximum-Head-Change  Column Row Layer    Maximum-Flux-Residual          L2-NORM 
          0                11           2             4    7     1      -0.2476451887E-02       4    7    1        -0.1370177686E+00      0.3172404677E+00
          0                12           2             4    7     1      -0.2081362473E-02       4    7    1        -0.1151565066E+00      0.2666498409E+00
          0                13           2             4    7     1      -0.1751725452E-02       4    7    1        -0.9691721249E-01      0.2244336604E+00
          0                14           2             4    7     1      -0.1476001728E-02       4    7    1        -0.8166126353E-01      0.1891178726E+00
          0                15           2             4    7     1      -0.1244880008E-02       4    7    1        -0.6887336258E-01      0.1595118595E+00
          0                16           2             4    7     1      -0.1050772803E-02       4    7    1        -0.5813362242E-01      0.1346450044E+00
          0                17           2             4    7     1      -0.8875086341E-03       4    7    1        -0.4910051644E-01      0.1137279535E+00
          0                18           2             4    7     1      -0.7500334791E-03       4    7    1        -0.4149436542E-01      0.9611402137E-01
          0                19           2             4    7     1      -0.6341637118E-03       4    7    1        -0.3508366452E-01      0.8126759982E-01
          0                20           2             4    7     1      -0.5363887795E-03       4    7    1        -0.2967416309E-01      0.6873894595E-01
                                                   Max.-Head-Change                         Max.-Flux-Residual
  Residual-Control   Outer-Iter.   Inner-Iter.     Column Row Layer    Maximum-Head-Change  Column Row Layer    Maximum-Flux-Residual          L2-NORM 
          0                21           2             4    7     1      -0.4538620161E-03       4    7    1        -0.2510832986E-01      0.5816408970E-01
          0                22           2             4    7     1      -0.3841071247E-03       4    7    1        -0.2124916061E-01      0.4922513019E-01
          0                23           2             4    7     1      -0.3251685288E-03       4    7    1        -0.1798842756E-01      0.4167247503E-01
          0                24           2             4    7     1      -0.2753285885E-03       4    7    1        -0.1523110518E-01      0.3528546321E-01
          0                25           2             4    7     1      -0.2331710822E-03       4    7    1        -0.1289882684E-01      0.2988291086E-01
          0                26           2             4    7     1      -0.1974921523E-03       4    7    1        -0.1092498538E-01      0.2531046930E-01
          0                27           2             4    7     1      -0.1672866786E-03       4    7    1        -0.9253966250E-02      0.2143942865E-01
          0                28           2             4    7     1      -0.1417315471E-03       4    7    1        -0.7840223547E-02      0.1816448280E-01
          0                29           2             4    7     1      -0.1200653167E-03       4    7    1        -0.6641639380E-02      0.1538758254E-01
          0                30           1             4    7     1      -0.1017314810E-03       4    7    1        -0.5627408436E-02      0.1303806328E-01
          0                31           1             4    7     1      -0.8621696622E-04       4    7    1        -0.4769152226E-02      0.1104981573E-01

    ------------------------------------------------
       NWT REQUIRED           31 OUTER ITERATIONS 
       AND A TOTAL OF         60 INNER ITERATIONS.
    ------------------------------------------------

 NO OUTPUT CONTROL FOR STRESS PERIOD    8   TIME STEP    7
 
 SOLVING FOR HEAD 
                                                   Max.-Head-Change                         Max.-Flux-Residual
  Residual-Control   Outer-Iter.   Inner-Iter.     Column Row Layer    Maximum-Head-Change  Column Row Layer    Maximum-Flux-Residual          L2-NORM 
          0                 1           2             4    7     1      -0.1553636557E+00       4    7    1        -0.8151961335E+01      0.1762265073E+02
          0                 2           2             5    8     1      -0.3685967797E-02       5    8    1        -0.2059099464E+00      0.5754236320E+00
          0                 3           2             5    7     1      -0.1206667863E-01       4    7    1        -0.6461892016E+00      0.1553122029E+01
          0                 4           2             4    7     1      -0.9017519764E-02       4    7    1        -0.4992242257E+00      0.1144202637E+01
          0                 5           2             4    7     1      -0.7410977259E-02       4    7    1        -0.4100575527E+00      0.9493686659E+00
          0                 6           2             4    7     1      -0.6113494524E-02       4    7    1        -0.3382814144E+00      0.7824131646E+00
          0                 7           2             4    7     1      -0.5069595572E-02       4    7    1        -0.2805098207E+00      0.6490758654E+00
          0                 8           2             4    7     1      -0.4220670660E-02       4    7    1        -0.2335328472E+00      0.5404771184E+00
          0                 9           2             4    7     1      -0.3525022651E-02       4    7    1        -0.1950385818E+00      0.4514650097E+00
          0                10           2             4    7     1      -0.2951549897E-02       4    7    1        -0.1633057916E+00      0.3780635915E+00
                                                   Max.-Head-Change                         Max.-Flux-Residual
  Residual-Control   Outer-Iter.   Inner-Iter.     Column Row Layer    Maximum-Head-Change  Column Row Layer    Maximum-Flux-Residual          L2-NORM 
          0                11           2             4    7     1      -0.2476461146E-02       4    7    1        -0.1370175987E+00      0.3172404692E+00
          0                12           2             4    7     1      -0.2081370256E-02       4    7    1        -0.1151563641E+00      0.2666498422E+00
          0                13           2             4    7     1      -0.1751732002E-02       4    7    1        -0.9691709270E-01      0.2244336615E+00
          0                14           2             4    7     1      -0.1476007247E-02       4    7    1        -0.8166116269E-01      0.1891178735E+00
          0                15           2             4    7     1      -0.1244884663E-02       4    7    1        -0.6887327762E-01      0.1595118603E+00
          0                16           2             4    7     1      -0.1050776732E-02       4    7    1        -0.5813355079E-01      0.1346450051E+00
          0                17           2             4    7     1      -0.8875119523E-03       4    7    1        -0.4910045596E-01      0.1137279541E+00
          0                18           2             4    7     1      -0.7500362836E-03       4    7    1        -0.4149431435E-01      0.9611402186E-01
          0                19           2             4    7     1      -0.6341660827E-03       4    7    1        -0.3508362137E-01      0.8126760022E-01
          0                20           2             4    7     1      -0.5363907853E-03       4    7    1        -0.2967412662E-01      0.6873894632E-01
                                                   Max.-Head-Change                         Max.-Flux-Residual
  Residual-Control   Outer-Iter.   Inner-Iter.     Column Row Layer    Maximum-Head-Change  Column Row Layer    Maximum-Flux-Residual          L2-NORM 
          0                21           2             4    7     1      -0.4538637133E-03       4    7    1        -0.2510829902E-01      0.5816409000E-01
          0                22           2             4    7     1      -0.3841085612E-03       4    7    1        -0.2124913451E-01      0.4922513044E-01
          0                23           2             4    7     1      -0.3251697442E-03       4    7    1        -0.1798840545E-01      0.4167247528E-01
          0                24           2             4    7     1      -0.2753296178E-03       4    7    1        -0.1523108649E-01      0.3528546340E-01
          0                25           2             4    7     1      -0.2331719542E-03       4    7    1        -0.1289881102E-01      0.2988291103E-01
          0                26           2             4    7     1      -0.1974928908E-03       4    7    1        -0.1092497198E-01      0.2531046944E-01
          0                27           2             4    7     1      -0.1672873042E-03       4    7    1        -0.9253954901E-02      0.2143942877E-01
          0                28           2             4    7     1      -0.1417320768E-03       4    7    1        -0.7840213937E-02      0.1816448291E-01
          0                29           2             4    7     1      -0.1200657659E-03       4    7    1        -0.6641631252E-02      0.1538758266E-01
          0                30           1             4    7     1      -0.1017318612E-03       4    7    1        -0.5627401538E-02      0.1303806335E-01
          0                31           1             4    7     1      -0.8621728853E-04       4    7    1        -0.4769146388E-02      0.1104981585E-01

    ------------------------------------------------
       NWT REQUIRED           31 OUTER ITERATIONS 
       AND A TOTAL OF         60 INNER ITERATIONS.
    ------------------------------------------------

 NO OUTPUT CONTROL FOR STRESS PERIOD    8   TIME STEP    8
 
 SOLVING FOR HEAD 
                                                   Max.-Head-Change                         Max.-Flux-Residual
  Residual-Control   Outer-Iter.   Inner-Iter.     Column Row Layer    Maximum-Head-Change  Column Row Layer    Maximum-Flux-Residual          L2-NORM 
          0                 1           2             4    7     1      -0.1533732525E+00       4    7    1        -0.8050551427E+01      0.1729344978E+02
          0                 2           2             5    8     1      -0.4112287961E-02       5    8    1        -0.2292504744E+00      0.6239062864E+00
          0                 3           2             4    7     1      -0.1235241854E-01       4    7    1        -0.6453711058E+00      0.1548886318E+01
          0                 4           2             4    7     1      -0.8800100987E-02       5    8    1        -0.4616499287E+00      0.1128508516E+01
          0                 5           2             4    7     1      -0.7341475765E-02       4    7    1        -0.3833034805E+00      0.9385634835E+00
          0                 6           2             4    7     1      -0.6046766850E-02       5    6    1        -0.3157146425E+00      0.7733275106E+00
          0                 7           2             4    7     1      -0.5017000038E-02       4    7    1        -0.2619376594E+00      0.6416009136E+00
          0                 8           2             4    7     1      -0.4177739790E-02       4    7    1        -0.2181198091E+00      0.5342746755E+00
          0                 9           2             4    7     1      -0.3489832972E-02       4    7    1        -0.1822041883E+00      0.4463006964E+00
          0                10           2             4    7     1      -0.2922525935E-02       4    7    1        -0.1525850803E+00      0.3737501107E+00
                                                   Max.-Head-Change                         Max.-Flux-Residual
  Residual-Control   Outer-Iter.   Inner-Iter.     Column Row Layer    Maximum-Head-Change  Column Row Layer    Maximum-Flux-Residual          L2-NORM 
          0                11           2             4    7     1      -0.2452408264E-02       4    7    1        -0.1280402325E+00      0.3136286454E+00
          0                12           2             4    7     1      -0.2061363016E-02       4    7    1        -0.1076237578E+00      0.2636194389E+00
          0                13           2             4    7     1      -0.1735036423E-02       4    7    1        -0.9058624521E-01      0.2218868409E+00
          0                14           2             4    7     1      -0.1462041084E-02       4    7    1        -0.7633315815E-01      0.1869745632E+00
          0                15           2             4    7     1      -0.1233177147E-02       4    7    1        -0.6438417208E-01      0.1577060733E+00
          0                16           2             4    7     1      -0.1040943940E-02       4    7    1        -0.5434767666E-01      0.1331221403E+00
          0                17           2             4    7     1      -0.8792417527E-03       4    7    1        -0.4590520595E-01      0.1124426970E+00
          0                18           2             4    7     1      -0.7430728732E-03       4    7    1        -0.3879582931E-01      0.9502860586E-01
          0                19           2             4    7     1      -0.6282974899E-03       4    7    1        -0.3280340713E-01      0.8035044310E-01
          0                20           2             4    7     1      -0.5314389106E-03       4    7    1        -0.2774642126E-01      0.6796358836E-01
                                                   Max.-Head-Change                         Max.-Flux-Residual
  Residual-Control   Outer-Iter.   Inner-Iter.     Column Row Layer    Maximum-Head-Change  Column Row Layer    Maximum-Flux-Residual          L2-NORM 
          0                21           2             4    7     1      -0.4496847727E-03       4    7    1        -0.2347803827E-01      0.5750838014E-01
          0                22           2             4    7     1      -0.3805764025E-03       4    7    1        -0.1986989074E-01      0.4867038809E-01
          0                23           2             4    7     1      -0.3221860029E-03       4    7    1        -0.1682132842E-01      0.4120307445E-01
          0                24           2             4    7     1      -0.2728066823E-03       4    7    1        -0.1424323446E-01      0.3488815143E-01
          0                25           2             4    7     1      -0.2310382465E-03       4    7    1        -0.1206250477E-01      0.2954655396E-01
          0                26           2             4    7     1      -0.1956872919E-03       4    7    1        -0.1021683172E-01      0.2502566229E-01
          0                27           2             4    7     1      -0.1657589275E-03       4    7    1        -0.8654272075E-02      0.2119824397E-01
          0                28           2             4    7     1      -0.1404393387E-03       4    7    1        -0.7332336575E-02      0.1796022347E-01
          0                29           2             4    7     1      -0.1189696678E-03       4    7    1        -0.6211405240E-02      0.1521455334E-01
          0                30           1             4    7     1      -0.1008047537E-03       4    7    1        -0.5263015196E-02      0.1289151537E-01
          0                31           1             4    7     1      -0.8543286240E-04       4    7    1        -0.4460448958E-02      0.1092566610E-01

    ------------------------------------------------
       NWT REQUIRED           31 OUTER ITERATIONS 
       AND A TOTAL OF         60 INNER ITERATIONS.
    ------------------------------------------------

 NO OUTPUT CONTROL FOR STRESS PERIOD    8   TIME STEP    9
 
 SOLVING FOR HEAD 
                                                   Max.-Head-Change                         Max.-Flux-Residual
  Residual-Control   Outer-Iter.   Inner-Iter.     Column Row Layer    Maximum-Head-Change  Column Row Layer    Maximum-Flux-Residual          L2-NORM 
          0                 1           2             4    7     1      -0.1513492664E+00       4    7    1        -0.7947121066E+01      0.1698185657E+02
          0                 2           2             5    8     1      -0.4517295827E-02       5    8    1        -0.2514037325E+00      0.6707899294E+00
          0                 3           2             4    7     1      -0.1233222085E-01       4    7    1        -0.6443378926E+00      0.1544709326E+01
          0                 4           2             4    7     1      -0.8802160501E-02       5    8    1        -0.4618695127E+00      0.1128930367E+01
          0                 5           2             4    7     1      -0.7341302365E-02       4    7    1        -0.3832931700E+00      0.9385213898E+00
          0                 6           2             4    7     1      -0.6046811039E-02       5    6    1        -0.3157167832E+00      0.7733317143E+00
          0                 7           2             4    7     1      -0.5017017878E-02       4    7    1        -0.2619375561E+00      0.6416004908E+00
          0                 8           2             4    7     1      -0.4177756534E-02       4    7    1        -0.2181198192E+00      0.5342747157E+00
          0                 9           2             4    7     1      -0.3489846770E-02       4    7    1        -0.1822041871E+00      0.4463006906E+00
          0                10           2             4    7     1      -0.2922537509E-02       4    7    1        -0.1525850803E+00      0.3737501098E+00
                                                   Max.-Head-Change                         Max.-Flux-Residual
  Residual-Control   Outer-Iter.   Inner-Iter.     Column Row Layer    Maximum-Head-Change  Column Row Layer    Maximum-Flux-Residual          L2-NORM 
          0                11           2             4    7     1      -0.2452417974E-02       4    7    1        -0.1280402324E+00      0.3136286443E+00
          0                12           2             4    7     1      -0.2061371178E-02       4    7    1        -0.1076237577E+00      0.2636194380E+00
          0                13           2             4    7     1      -0.1735043293E-02       4    7    1        -0.9058624512E-01      0.2218868402E+00
          0                14           2             4    7     1      -0.1462046873E-02       4    7    1        -0.7633315809E-01      0.1869745626E+00
          0                15           2             4    7     1      -0.1233182030E-02       4    7    1        -0.6438417203E-01      0.1577060728E+00
          0                16           2             4    7     1      -0.1040948061E-02       4    7    1        -0.5434767661E-01      0.1331221399E+00
          0                17           2             4    7     1      -0.8792452341E-03       4    7    1        -0.4590520592E-01      0.1124426966E+00
          0                18           2             4    7     1      -0.7430758149E-03       4    7    1        -0.3879582928E-01      0.9502860552E-01
          0                19           2             4    7     1      -0.6282999781E-03       4    7    1        -0.3280340713E-01      0.8035044284E-01
          0                20           2             4    7     1      -0.5314410145E-03       4    7    1        -0.2774642124E-01      0.6796358812E-01
                                                   Max.-Head-Change                         Max.-Flux-Residual
  Residual-Control   Outer-Iter.   Inner-Iter.     Column Row Layer    Maximum-Head-Change  Column Row Layer    Maximum-Flux-Residual          L2-NORM 
          0                21           2             4    7     1      -0.4496865540E-03       4    7    1        -0.2347803827E-01      0.5750837994E-01
          0                22           2             4    7     1      -0.3805779091E-03       4    7    1        -0.1986989070E-01      0.4867038791E-01
          0                23           2             4    7     1      -0.3221872787E-03       4    7    1        -0.1682132839E-01      0.4120307432E-01
          0                24           2             4    7     1      -0.2728077616E-03       4    7    1        -0.1424323443E-01      0.3488815131E-01
          0                25           2             4    7     1      -0.2310391617E-03       4    7    1        -0.1206250479E-01      0.2954655384E-01
          0                26           2             4    7     1      -0.1956880667E-03       4    7    1        -0.1021683172E-01      0.2502566221E-01
          0                27           2             4    7     1      -0.1657595837E-03       4    7    1        -0.8654272072E-02      0.2119824387E-01
          0                28           2             4    7     1      -0.1404398953E-03       4    7    1        -0.7332336590E-02      0.1796022341E-01
          0                29           2             4    7     1      -0.1189701385E-03       4    7    1        -0.6211405223E-02      0.1521455329E-01
          0                30           1             4    7     1      -0.1008051535E-03       4    7    1        -0.5263015204E-02      0.1289151533E-01
          0                31           1             4    7     1      -0.8543320030E-04       4    7    1        -0.4460448924E-02      0.1092566604E-01

    ------------------------------------------------
       NWT REQUIRED           31 OUTER ITERATIONS 
       AND A TOTAL OF         60 INNER ITERATIONS.
    ------------------------------------------------

 OUTPUT CONTROL FOR STRESS PERIOD    8   TIME STEP   10
    PRINT BUDGET
    SAVE BUDGET
 UBDSV1 SAVING "         STORAGE" ON UNIT 102 AT TIME STEP 10, STRESS PERIOD   8
 UBDSV2 SAVING "   CONSTANT HEAD" ON UNIT 102 AT TIME STEP 10, STRESS PERIOD   8
 UBDSV1 SAVING "FLOW RIGHT FACE " ON UNIT 102 AT TIME STEP 10, STRESS PERIOD   8
 UBDSV1 SAVING "FLOW FRONT FACE " ON UNIT 102 AT TIME STEP 10, STRESS PERIOD   8

  HEAD DEP BOUNDS   PERIOD    8   STEP    10
 BOUNDARY      1   LAYER   1   ROW    13   COL     1   RATE   -0.299185    
 BOUNDARY      2   LAYER   1   ROW    14   COL     9   RATE    0.285481    



 STREAM LISTING     PERIOD      8   STEP       10

 LAYER ROW COL. STREAM  RCH.  FLOW INTO     FLOW TO   FLOW OUT OF   OVRLND.     DIRECT     STREAM       STREAM     STREAM     STREAM   STREAMBED  STREAMBED
                SEG.NO.  NO.  STRM. RCH.    AQUIFER    STRM. RCH.    RUNOFF     PRECIP       ET          HEAD       DEPTH      WIDTH   CONDCTNC.   GRADIENT

   1    1    1     1     1    7.5000E+01  4.2232E-01   7.4578E+01  0.000E+00  0.000E+00  0.000E+00  1.09475E+03  1.698E+00  1.998E+01  8.990E-02  1.566E+00
   1    2    2     1     2    7.4578E+01  6.5422E-01   7.3924E+01  0.000E+00  0.000E+00  0.000E+00  1.08975E+03  1.692E+00  1.992E+01  1.394E-01  1.564E+00
   1    3    3     1     3    7.3924E+01  5.5813E-01   7.3366E+01  0.000E+00  0.000E+00  0.000E+00  1.08410E+03  1.685E+00  1.985E+01  1.191E-01  1.562E+00
   1    3    4     1     4    7.3366E+01  5.1412E-01   7.2852E+01  0.000E+00  0.000E+00  0.000E+00  1.07909E+03  1.679E+00  1.980E+01  1.099E-01  1.560E+00
   1    4    5     2     1    7.0852E+01  4.0967E-01   7.0442E+01  0.000E+00  0.000E+00  0.000E+00  1.07419E+03  2.252E+00  1.200E+01  7.800E-02  1.751E+00
   1    5    6     2     2    7.0442E+01  3.1471E-01   7.0127E+01  0.000E+00  0.000E+00  0.000E+00  1.06875E+03  2.245E+00  1.200E+01  6.000E-02  1.748E+00
   1    6    6     2     3    7.0127E+01  3.1435E-01   6.9813E+01  0.000E+00  0.000E+00  0.000E+00  1.06403E+03  2.239E+00  1.200E+01  6.000E-02  1.746E+00
   1    7    6     2     4    6.9813E+01  3.1399E-01   6.9499E+01  0.000E+00  0.000E+00  0.000E+00  1.05931E+03  2.233E+00  1.200E+01  6.000E-02  1.744E+00
   1    8    6     2     5    6.9499E+01  3.1363E-01   6.9185E+01  0.000E+00  0.000E+00  0.000E+00  1.05459E+03  2.227E+00  1.200E+01  6.000E-02  1.742E+00
   1    3    5     3     1    2.0000E+00  2.8252E-01   1.7175E+00  0.000E+00  0.000E+00  0.000E+00  1.07555E+03  1.909E+00  9.636E+00  7.227E-02  1.955E+00
   1    3    6     3     2    1.7175E+00  2.4905E-01   1.4684E+00  0.000E+00  0.000E+00  0.000E+00  1.07264E+03  1.727E+00  8.909E+00  6.682E-02  1.864E+00
   1    3    7     3     3    1.4684E+00  1.9718E-01   1.2712E+00  0.000E+00  0.000E+00  0.000E+00  1.06987E+03  1.555E+00  8.218E+00  5.547E-02  1.777E+00
   1    4    8     3     4    1.2712E+00  2.2567E-01   1.0456E+00  0.000E+00  0.000E+00  0.000E+00  1.06682E+03  1.364E+00  7.455E+00  6.709E-02  1.682E+00
   1    5    8     3     5    1.0456E+00  1.5790E-01   8.8768E-01  0.000E+00  0.000E+00  0.000E+00  1.06362E+03  1.164E+00  6.655E+00  4.991E-02  1.582E+00
   1    6    8     3     6    8.8768E-01  5.5980E-02   8.3170E-01  0.000E+00  0.000E+00  0.000E+00  1.06158E+03  1.036E+00  6.145E+00  1.844E-02  1.518E+00
   1    5   10     4     1    1.0000E+01  9.0919E-02   9.9091E+00  0.000E+00  0.000E+00  0.000E+00  1.07836E+03  6.368E-01  1.000E+01  2.500E-02  1.212E+00
   1    5    9     4     2    9.9091E+00  1.8158E-01   9.7275E+00  0.000E+00  0.000E+00  0.000E+00  1.07154E+03  6.315E-01  1.000E+01  5.000E-02  1.211E+00
   1    6    8     4     3    9.7275E+00  1.2689E-01   9.6006E+00  0.000E+00  0.000E+00  0.000E+00  1.06381E+03  6.256E-01  1.000E+01  3.500E-02  1.209E+00
   1    6    8     5     1    1.0432E+01  2.2686E-01   1.0205E+01  0.000E+00  0.000E+00  0.000E+00  1.05868E+03  6.790E-01  1.542E+01  6.166E-02  1.226E+00
   1    7    7     5     2    1.0205E+01  2.7894E-01   9.9265E+00  0.000E+00  0.000E+00  0.000E+00  1.05417E+03  6.732E-01  1.519E+01  7.594E-02  1.224E+00
   1    8    7     5     3    9.9265E+00  1.9221E-01   9.7343E+00  0.000E+00  0.000E+00  0.000E+00  1.04992E+03  6.676E-01  1.497E+01  5.241E-02  1.223E+00
   1    8    6     5     4    9.7343E+00  1.3577E-01   9.5985E+00  0.000E+00  0.000E+00  0.000E+00  1.04691E+03  6.637E-01  1.482E+01  3.706E-02  1.221E+00
   1    9    6     6     1    7.8784E+01  3.2569E-01   7.8458E+01  0.000E+00  0.000E+00  0.000E+00  1.04516E+03  2.428E+00  1.200E+01  6.000E-02  1.809E+00
   1   10    7     6     2    7.8458E+01  3.2533E-01   7.8133E+01  0.000E+00  0.000E+00  0.000E+00  1.04060E+03  2.422E+00  1.200E+01  6.000E-02  1.807E+00
   1   11    7     6     3    7.8133E+01  3.2497E-01   7.7808E+01  0.000E+00  0.000E+00  0.000E+00  1.03605E+03  2.416E+00  1.200E+01  6.000E-02  1.805E+00
   1   12    7     6     4    7.7808E+01  3.2461E-01   7.7483E+01  0.000E+00  0.000E+00  0.000E+00  1.03150E+03  2.410E+00  1.200E+01  6.000E-02  1.803E+00
   1   13    7     6     5    7.7483E+01  2.5897E-02   7.7457E+01  0.000E+00  0.000E+00  0.000E+00  1.02832E+03  2.407E+00  1.200E+01  2.400E-02  3.597E-01
   1   14    9     7     1    1.5000E+02  1.3317E+00   1.4867E+02  0.000E+00  0.000E+00  0.000E+00  1.03987E+03  2.288E+00  5.529E+01  5.593E-01  7.937E-01
   1   13    8     7     2    1.4867E+02  1.8009E+00   1.4687E+02  0.000E+00  0.000E+00  0.000E+00  1.03478E+03  2.279E+00  5.526E+01  6.148E-01  9.765E-01
   1   13    7     7     3    1.4687E+02  1.3702E+00   1.4550E+02  0.000E+00  0.000E+00  0.000E+00  1.02969E+03  2.271E+00  5.522E+01  5.585E-01  8.178E-01
   1   13    6     8     1    2.2295E+02  1.0170E+00   2.2194E+02  0.000E+00  0.000E+00  0.000E+00  1.02514E+03  3.265E+00  4.735E+01  4.825E-01  7.026E-01
   1   13    5     8     2    2.2194E+02  1.9942E-01   2.2174E+02  0.000E+00  0.000E+00  0.000E+00  1.01889E+03  3.262E+00  4.730E+01  4.820E-01  1.379E-01
   1   13    4     8     3    2.2174E+02 -1.9212E+00   2.2366E+02  0.000E+00  0.000E+00  0.000E+00  1.01264E+03  3.267E+00  4.737E+01  4.827E+00 -1.327E-01
   1   13    3     8     4    2.2366E+02 -3.0746E+00   2.2673E+02  0.000E+00  0.000E+00  0.000E+00  1.00641E+03  3.280E+00  4.757E+01  4.847E+00 -2.114E-01
   1   13    2     8     5    2.2673E+02 -2.5694E+00   2.2930E+02  0.000E+00  0.000E+00  0.000E+00  1.00017E+03  3.296E+00  4.779E+01  4.870E+00 -1.759E-01
   1   13    1     8     6    2.2930E+02 -2.0238E+00   2.3133E+02  0.000E+00  0.000E+00  0.000E+00  9.95183E+02  3.308E+00  4.797E+01  2.933E+00 -2.300E-01



 UBDSV3 SAVING "           GW ET" ON UNIT  61 AT TIME STEP 10, STRESS PERIOD   8
 UBDSV3 SAVING "    UZF RECHARGE" ON UNIT  61 AT TIME STEP 10, STRESS PERIOD   8
 UBDSV3 SAVING " SURFACE LEAKAGE" ON UNIT  61 AT TIME STEP 10, STRESS PERIOD   8
 UBDSV3 SAVING "       HORT+DUNN" ON UNIT  61 AT TIME STEP 10, STRESS PERIOD   8
 UBDSV3 SAVING "  STORAGE CHANGE" ON UNIT  61 AT TIME STEP 10, STRESS PERIOD   8


UNSATURATED ZONE PACKAGE VOLUMETRIC BUDGET FOR  TIME STEP    10 STRESS PERIOD    8
  ------------------------------------------------------------------------------



     CUMULATIVE VOLUMES      L**3       RATES FOR THIS TIME STEP      L**3/T
     ------------------                 ------------------------

           IN:                                      IN:
           ---                                      ---
        INFILTRATION =   179273366.1203          INFILTRATION =          88.1754

          OUT:                                     OUT:
          ----                                     ----
              UZF ET =   155193212.9071                UZF ET =          60.7922
        UZF RECHARGE =       73224.0000          UZF RECHARGE =       0.0000E+00

            IN - OUT =    24006929.2132              IN - OUT =          27.3832

          STORAGE:                                 STORAGE:
          --------                                 --------
      STORAGE CHANGE =    24006926.8658        STORAGE CHANGE =          27.3832

 PERCENT DISCREPANCY IS DIFFERENCE BETWEEN IN-OUT MINUS CHANGE IN STORAGE
 DIVIDED BY THE AVERAGE OF IN AND OUT TIMES 100

 PERCENT DISCREPANCY =           0.00     PERCENT DISCREPANCY =           0.00






 

            AG WELLS      PERIOD    8   STEP  10
 AG WELL      1   LAYER   1   ROW     6   COL     4   RATE    -14.5546    
 AG WELL      2   LAYER   1   ROW     6   COL     5   RATE    -14.5546    
 AG WELL      3   LAYER   1   ROW     7   COL     4   RATE    -14.5546    
 AG WELL      4   LAYER   1   ROW     7   COL     5   RATE    -14.5546    
 AG WELL      5   LAYER   1   ROW     8   COL     4   RATE    -14.5546    
 AG WELL      6   LAYER   1   ROW     8   COL     5   RATE    -14.5546    
 
 

        GW IRRIGATION     PERIOD    8   STEP  10
 AG WELL      1   ROW     6   COL     4   RATE     14.5546    
 AG WELL      2   ROW     6   COL     5   RATE     14.5546    
 AG WELL      3   ROW     7   COL     4   RATE     14.5546    
 AG WELL      4   ROW     7   COL     5   RATE     14.5546    
 AG WELL      5   ROW     8   COL     4   RATE     14.5546    
 AG WELL      6   ROW     8   COL     5   RATE     14.5546    
 
1
  VOLUMETRIC BUDGET FOR AGRICULTURAL FIELDS AT  END OF TIME STEP   10, STRESS PERIOD   8
  ------------------------------------------------------------------------------

     CUMULATIVE VOLUMES      L**3       RATES FOR THIS TIME STEP      L**3/T
     ------------------                 ------------------------

           IN:                                      IN:
           ---                                      ---
               AG WELLS  =   165083664.0000                 AG WELLS  =          87.3279
      DIVERSION SEGMENTS =           0.0000        DIVERSION SEGMENTS =           0.0000
           GW IRRIGATION =           0.0000             GW IRRIGATION =           0.0000
           SW IRRIGATION =           0.0000             SW IRRIGATION =           0.0000
        SYSTEM LOSSES GW =           0.0000          SYSTEM LOSSES GW =           0.0000
        SYSTEM LOSSES SW =           0.0000          SYSTEM LOSSES SW =           0.0000

                TOTAL IN =   165083664.0000                  TOTAL IN =          87.3279

          OUT:                                     OUT:
          ----                                     ----
               AG WELLS  =           0.0000                 AG WELLS  =           0.0000
      DIVERSION SEGMENTS =           0.0000        DIVERSION SEGMENTS =           0.0000
           GW IRRIGATION =   165083664.0000             GW IRRIGATION =          87.3279
           SW IRRIGATION =           0.0000             SW IRRIGATION =           0.0000
        SYSTEM LOSSES GW =           0.0000          SYSTEM LOSSES GW =           0.0000
        SYSTEM LOSSES SW =           0.0000          SYSTEM LOSSES SW =           0.0000

               TOTAL OUT =   165083664.0000                 TOTAL OUT =          87.3279

                IN - OUT =           0.0000                  IN - OUT =           0.0000

     PERCENT DISCREPANCY =           0.00         PERCENT DISCREPANCY =           0.00



1
  VOLUMETRIC BUDGET FOR ENTIRE MODEL AT END OF TIME STEP   10, STRESS PERIOD   8
  ------------------------------------------------------------------------------

     CUMULATIVE VOLUMES      L**3       RATES FOR THIS TIME STEP      L**3/T
     ------------------                 ------------------------

           IN:                                      IN:
           ---                                      ---
             STORAGE     =   170867216.0000               STORAGE     =          86.6404
       CONSTANT HEAD     =           0.0000         CONSTANT HEAD     =           0.0000
     HEAD DEP BOUNDS     =     4779378.0000       HEAD DEP BOUNDS     =           0.2855
      STREAM LEAKAGE     =   213832096.0000        STREAM LEAKAGE     =          13.2624
        UZF RECHARGE     =       73223.9531          UZF RECHARGE     =           0.0000
               GW ET     =           0.0000                 GW ET     =           0.0000
     SURFACE LEAKAGE     =           0.0000       SURFACE LEAKAGE     =           0.0000
           AG WELLS      =           0.0000             AG WELLS      =           0.0000

                TOTAL IN =   389551904.0000                  TOTAL IN =         100.1883

          OUT:                                     OUT:
          ----                                     ----
             STORAGE     =    43027708.0000               STORAGE     =           1.3788
       CONSTANT HEAD     =           0.0000         CONSTANT HEAD     =           0.0000
     HEAD DEP BOUNDS     =     4936586.5000       HEAD DEP BOUNDS     =           0.2992
      STREAM LEAKAGE     =   168874960.0000        STREAM LEAKAGE     =           9.5890
        UZF RECHARGE     =           0.0000          UZF RECHARGE     =           0.0000
               GW ET     =     7629709.5000                 GW ET     =           1.5908
     SURFACE LEAKAGE     =           0.0000       SURFACE LEAKAGE     =           0.0000
           AG WELLS      =   165083664.0000             AG WELLS      =          87.3279

               TOTAL OUT =   389552640.0000                 TOTAL OUT =         100.1856

                IN - OUT =        -736.0000                  IN - OUT =       2.6550E-03

     PERCENT DISCREPANCY =          -0.00         PERCENT DISCREPANCY =           0.00






         TIME SUMMARY AT END OF TIME STEP   10 IN STRESS PERIOD    8
                    SECONDS     MINUTES      HOURS       DAYS        YEARS
                    -----------------------------------------------------------
   TIME STEP LENGTH  87667.      1461.1      24.352      1.0147     2.77799E-03
 STRESS PERIOD TIME 8.76667E+05  14611.      243.52      10.147     2.77799E-02
         TOTAL TIME 1.67431E+07 2.79052E+05  4650.9      193.79     0.53056    
1
 
 SOLVING FOR HEAD 
                                                   Max.-Head-Change                         Max.-Flux-Residual
  Residual-Control   Outer-Iter.   Inner-Iter.     Column Row Layer    Maximum-Head-Change  Column Row Layer    Maximum-Flux-Residual          L2-NORM 
          0                 1           2             4    7     1      -0.1492969721E+00       4    7    1        -0.7841963346E+01      0.1668659761E+02
          0                 2           2             5    8     1      -0.4902416571E-02       5    8    1        -0.2724501076E+00      0.7161433941E+00
          0                 3           2             4    7     1      -0.1231174129E-01       4    7    1        -0.6432873912E+00      0.1540662478E+01
          0                 4           2             4    7     1      -0.8804249150E-02       5    8    1        -0.4620781613E+00      0.1129339232E+01
          0                 5           2             4    7     1      -0.7341126829E-02       4    7    1        -0.3832826861E+00      0.9384805900E+00
          0                 6           2             4    7     1      -0.6046856083E-02       5    6    1        -0.3157188242E+00      0.7733357891E+00
          0                 7           2             4    7     1      -0.5017036164E-02       4    7    1        -0.2619374511E+00      0.6416000811E+00
          0                 8           2             4    7     1      -0.4177773677E-02       4    7    1        -0.2181198295E+00      0.5342747547E+00
          0                 9           2             4    7     1      -0.3489860897E-02       4    7    1        -0.1822041859E+00      0.4463006851E+00
          0                10           2             4    7     1      -0.2922549359E-02       4    7    1        -0.1525850803E+00      0.3737501090E+00
                                                   Max.-Head-Change                         Max.-Flux-Residual
  Residual-Control   Outer-Iter.   Inner-Iter.     Column Row Layer    Maximum-Head-Change  Column Row Layer    Maximum-Flux-Residual          L2-NORM 
          0                11           2             4    7     1      -0.2452427915E-02       4    7    1        -0.1280402323E+00      0.3136286433E+00
          0                12           2             4    7     1      -0.2061379535E-02       4    7    1        -0.1076237576E+00      0.2636194372E+00
          0                13           2             4    7     1      -0.1735050327E-02       4    7    1        -0.9058624505E-01      0.2218868395E+00
          0                14           2             4    7     1      -0.1462052800E-02       4    7    1        -0.7633315804E-01      0.1869745620E+00
          0                15           2             4    7     1      -0.1233187029E-02       4    7    1        -0.6438417197E-01      0.1577060723E+00
          0                16           2             4    7     1      -0.1040952281E-02       4    7    1        -0.5434767657E-01      0.1331221394E+00
          0                17           2             4    7     1      -0.8792487986E-03       4    7    1        -0.4590520589E-01      0.1124426962E+00
          0                18           2             4    7     1      -0.7430788276E-03       4    7    1        -0.3879582925E-01      0.9502860523E-01
          0                19           2             4    7     1      -0.6283025251E-03       4    7    1        -0.3280340710E-01      0.8035044256E-01
          0                20           2             4    7     1      -0.5314431691E-03       4    7    1        -0.2774642122E-01      0.6796358791E-01
                                                   Max.-Head-Change                         Max.-Flux-Residual
  Residual-Control   Outer-Iter.   Inner-Iter.     Column Row Layer    Maximum-Head-Change  Column Row Layer    Maximum-Flux-Residual          L2-NORM 
          0                21           2             4    7     1      -0.4496883765E-03       4    7    1        -0.2347803825E-01      0.5750837974E-01
          0                22           2             4    7     1      -0.3805794523E-03       4    7    1        -0.1986989070E-01      0.4867038775E-01
          0                23           2             4    7     1      -0.3221885847E-03       4    7    1        -0.1682132838E-01      0.4120307418E-01
          0                24           2             4    7     1      -0.2728088684E-03       4    7    1        -0.1424323443E-01      0.3488815119E-01
          0                25           2             4    7     1      -0.2310400982E-03       4    7    1        -0.1206250475E-01      0.2954655375E-01
          0                26           2             4    7     1      -0.1956888598E-03       4    7    1        -0.1021683169E-01      0.2502566212E-01
          0                27           2             4    7     1      -0.1657602557E-03       4    7    1        -0.8654272062E-02      0.2119824382E-01
          0                28           2             4    7     1      -0.1404404645E-03       4    7    1        -0.7332336574E-02      0.1796022334E-01
          0                29           2             4    7     1      -0.1189706210E-03       4    7    1        -0.6211405220E-02      0.1521455325E-01
          0                30           1             4    7     1      -0.1008055618E-03       4    7    1        -0.5263015191E-02      0.1289151529E-01
          0                31           1             4    7     1      -0.8543354658E-04       4    7    1        -0.4460448936E-02      0.1092566600E-01

    ------------------------------------------------
       NWT REQUIRED           31 OUTER ITERATIONS 
       AND A TOTAL OF         60 INNER ITERATIONS.
    ------------------------------------------------

 NO OUTPUT CONTROL FOR STRESS PERIOD    8   TIME STEP   11
 
 SOLVING FOR HEAD 
                                                   Max.-Head-Change                         Max.-Flux-Residual
  Residual-Control   Outer-Iter.   Inner-Iter.     Column Row Layer    Maximum-Head-Change  Column Row Layer    Maximum-Flux-Residual          L2-NORM 
          0                 1           2             4    7     1      -0.1472210436E+00       4    7    1        -0.7735338535E+01      0.1640656475E+02
          0                 2           2             5    8     1      -0.5268940341E-02       5    8    1        -0.2924621320E+00      0.7599582767E+00
          0                 3           2             4    7     1      -0.1229102648E-01       4    7    1        -0.6422222031E+00      0.1536739862E+01
          0                 4           2             4    7     1      -0.8806362174E-02       5    8    1        -0.4622765903E+00      0.1129735668E+01
          0                 5           2             4    7     1      -0.7340949553E-02       4    7    1        -0.3832720548E+00      0.9384410285E+00
          0                 6           2             4    7     1      -0.6046901875E-02       5    6    1        -0.3157207714E+00      0.7733397404E+00
          0                 7           2             4    7     1      -0.5017054852E-02       4    7    1        -0.2619373446E+00      0.6415996839E+00
          0                 8           2             4    7     1      -0.4177791175E-02       4    7    1        -0.2181198400E+00      0.5342747926E+00
          0                 9           2             4    7     1      -0.3489875320E-02       4    7    1        -0.1822041847E+00      0.4463006798E+00
          0                10           2             4    7     1      -0.2922561457E-02       4    7    1        -0.1525850803E+00      0.3737501082E+00
                                                   Max.-Head-Change                         Max.-Flux-Residual
  Residual-Control   Outer-Iter.   Inner-Iter.     Column Row Layer    Maximum-Head-Change  Column Row Layer    Maximum-Flux-Residual          L2-NORM 
          0                11           2             4    7     1      -0.2452438066E-02       4    7    1        -0.1280402322E+00      0.3136286423E+00
          0                12           2             4    7     1      -0.2061388066E-02       4    7    1        -0.1076237575E+00      0.2636194364E+00
          0                13           2             4    7     1      -0.1735057508E-02       4    7    1        -0.9058624498E-01      0.2218868388E+00
          0                14           2             4    7     1      -0.1462058852E-02       4    7    1        -0.7633315798E-01      0.1869745614E+00
          0                15           2             4    7     1      -0.1233192133E-02       4    7    1        -0.6438417192E-01      0.1577060718E+00
          0                16           2             4    7     1      -0.1040956590E-02       4    7    1        -0.5434767652E-01      0.1331221390E+00
          0                17           2             4    7     1      -0.8792524374E-03       4    7    1        -0.4590520585E-01      0.1124426959E+00
          0                18           2             4    7     1      -0.7430819031E-03       4    7    1        -0.3879582923E-01      0.9502860496E-01
          0                19           2             4    7     1      -0.6283051251E-03       4    7    1        -0.3280340707E-01      0.8035044234E-01
          0                20           2             4    7     1      -0.5314453688E-03       4    7    1        -0.2774642121E-01      0.6796358771E-01
                                                   Max.-Head-Change                         Max.-Flux-Residual
  Residual-Control   Outer-Iter.   Inner-Iter.     Column Row Layer    Maximum-Head-Change  Column Row Layer    Maximum-Flux-Residual          L2-NORM 
          0                21           2             4    7     1      -0.4496902380E-03       4    7    1        -0.2347803824E-01      0.5750837959E-01
          0                22           2             4    7     1      -0.3805810273E-03       4    7    1        -0.1986989068E-01      0.4867038761E-01
          0                23           2             4    7     1      -0.3221899184E-03       4    7    1        -0.1682132837E-01      0.4120307405E-01
          0                24           2             4    7     1      -0.2728099970E-03       4    7    1        -0.1424323441E-01      0.3488815109E-01
          0                25           2             4    7     1      -0.2310410543E-03       4    7    1        -0.1206250475E-01      0.2954655367E-01
          0                26           2             4    7     1      -0.1956896700E-03       4    7    1        -0.1021683169E-01      0.2502566204E-01
          0                27           2             4    7     1      -0.1657609418E-03       4    7    1        -0.8654272050E-02      0.2119824375E-01
          0                28           2             4    7     1      -0.1404410453E-03       4    7    1        -0.7332336559E-02      0.1796022328E-01
          0                29           2             4    7     1      -0.1189711136E-03       4    7    1        -0.6211405228E-02      0.1521455320E-01
          0                30           1             4    7     1      -0.1008059792E-03       4    7    1        -0.5263015188E-02      0.1289151526E-01
          0                31           1             4    7     1      -0.8543390011E-04       4    7    1        -0.4460448921E-02      0.1092566597E-01

    ------------------------------------------------
       NWT REQUIRED           31 OUTER ITERATIONS 
       AND A TOTAL OF         60 INNER ITERATIONS.
    ------------------------------------------------

 NO OUTPUT CONTROL FOR STRESS PERIOD    8   TIME STEP   12
 
 SOLVING FOR HEAD 
                                                   Max.-Head-Change                         Max.-Flux-Residual
  Residual-Control   Outer-Iter.   Inner-Iter.     Column Row Layer    Maximum-Head-Change  Column Row Layer    Maximum-Flux-Residual          L2-NORM 
          0                 1           2             4    7     1      -0.1451256865E+00       4    7    1        -0.7627481607E+01      0.1614072135E+02
          0                 2           2             5    8     1      -0.5618085340E-02       5    8    1        -0.3115082732E+00      0.8022574728E+00
          0                 3           2             4    7     1      -0.1227011836E-01       4    7    1        -0.6411446771E+00      0.1532935640E+01
          0                 4           2             4    7     1      -0.8808495289E-02       5    8    1        -0.4624654753E+00      0.1130120229E+01
          0                 5           2             4    7     1      -0.7340770892E-02       4    7    1        -0.3832612996E+00      0.9384026501E+00
          0                 6           2             4    7     1      -0.6046948321E-02       5    6    1        -0.3157226307E+00      0.7733435737E+00
          0                 7           2             4    7     1      -0.5017073901E-02       4    7    1        -0.2619372369E+00      0.6415992987E+00
          0                 8           2             4    7     1      -0.4177808992E-02       4    7    1        -0.2181198506E+00      0.5342748295E+00
          0                 9           2             4    7     1      -0.3489890008E-02       4    7    1        -0.1822041835E+00      0.4463006748E+00
          0                10           2             4    7     1      -0.2922573776E-02       4    7    1        -0.1525850802E+00      0.3737501076E+00
                                                   Max.-Head-Change                         Max.-Flux-Residual
  Residual-Control   Outer-Iter.   Inner-Iter.     Column Row Layer    Maximum-Head-Change  Column Row Layer    Maximum-Flux-Residual          L2-NORM 
          0                11           2             4    7     1      -0.2452448401E-02       4    7    1        -0.1280402321E+00      0.3136286414E+00
          0                12           2             4    7     1      -0.2061396755E-02       4    7    1        -0.1076237575E+00      0.2636194357E+00
          0                13           2             4    7     1      -0.1735064820E-02       4    7    1        -0.9058624490E-01      0.2218868382E+00
          0                14           2             4    7     1      -0.1462065014E-02       4    7    1        -0.7633315792E-01      0.1869745609E+00
          0                15           2             4    7     1      -0.1233197331E-02       4    7    1        -0.6438417188E-01      0.1577060714E+00
          0                16           2             4    7     1      -0.1040960977E-02       4    7    1        -0.5434767648E-01      0.1331221387E+00
          0                17           2             4    7     1      -0.8792561432E-03       4    7    1        -0.4590520582E-01      0.1124426956E+00
          0                18           2             4    7     1      -0.7430850352E-03       4    7    1        -0.3879582920E-01      0.9502860468E-01
          0                19           2             4    7     1      -0.6283077730E-03       4    7    1        -0.3280340704E-01      0.8035044212E-01
          0                20           2             4    7     1      -0.5314476087E-03       4    7    1        -0.2774642120E-01      0.6796358755E-01
                                                   Max.-Head-Change                         Max.-Flux-Residual
  Residual-Control   Outer-Iter.   Inner-Iter.     Column Row Layer    Maximum-Head-Change  Column Row Layer    Maximum-Flux-Residual          L2-NORM 
          0                21           2             4    7     1      -0.4496921331E-03       4    7    1        -0.2347803822E-01      0.5750837944E-01
          0                22           2             4    7     1      -0.3805826315E-03       4    7    1        -0.1986989067E-01      0.4867038749E-01
          0                23           2             4    7     1      -0.3221912760E-03       4    7    1        -0.1682132835E-01      0.4120307395E-01
          0                24           2             4    7     1      -0.2728111473E-03       4    7    1        -0.1424323442E-01      0.3488815100E-01
          0                25           2             4    7     1      -0.2310420279E-03       4    7    1        -0.1206250473E-01      0.2954655359E-01
          0                26           2             4    7     1      -0.1956904945E-03       4    7    1        -0.1021683169E-01      0.2502566199E-01
          0                27           2             4    7     1      -0.1657616406E-03       4    7    1        -0.8654272063E-02      0.2119824370E-01
          0                28           2             4    7     1      -0.1404416375E-03       4    7    1        -0.7332336563E-02      0.1796022326E-01
          0                29           2             4    7     1      -0.1189716149E-03       4    7    1        -0.6211405222E-02      0.1521455315E-01
          0                30           1             4    7     1      -0.1008064040E-03       4    7    1        -0.5263015184E-02      0.1289151521E-01
          0                31           1             4    7     1      -0.8543426014E-04       4    7    1        -0.4460448919E-02      0.1092566595E-01

    ------------------------------------------------
       NWT REQUIRED           31 OUTER ITERATIONS 
       AND A TOTAL OF         60 INNER ITERATIONS.
    ------------------------------------------------

 NO OUTPUT CONTROL FOR STRESS PERIOD    8   TIME STEP   13
 
 SOLVING FOR HEAD 
                                                   Max.-Head-Change                         Max.-Flux-Residual
  Residual-Control   Outer-Iter.   Inner-Iter.     Column Row Layer    Maximum-Head-Change  Column Row Layer    Maximum-Flux-Residual          L2-NORM 
          0                 1           2             4    7     1      -0.1430148043E+00       4    7    1        -0.7518610605E+01      0.1588815623E+02
          0                 2           2             5    8     1      -0.5950962532E-02       5    8    1        -0.3296509098E+00      0.8430832015E+00
          0                 3           2             4    7     1      -0.1224905587E-01       4    7    1        -0.6400569932E+00      0.1529244553E+01
          0                 4           2             4    7     1      -0.8810644518E-02       5    8    1        -0.4626454320E+00      0.1130493417E+01
          0                 5           2             4    7     1      -0.7340591175E-02       4    7    1        -0.3832504424E+00      0.9383654046E+00
          0                 6           2             4    7     1      -0.6046995329E-02       5    6    1        -0.3157244073E+00      0.7733472941E+00
          0                 7           2             4    7     1      -0.5017093274E-02       4    7    1        -0.2619371282E+00      0.6415989251E+00
          0                 8           2             4    7     1      -0.4177827093E-02       4    7    1        -0.2181198613E+00      0.5342748655E+00
          0                 9           2             4    7     1      -0.3489904931E-02       4    7    1        -0.1822041823E+00      0.4463006700E+00
          0                10           2             4    7     1      -0.2922586293E-02       4    7    1        -0.1525850803E+00      0.3737501071E+00
                                                   Max.-Head-Change                         Max.-Flux-Residual
  Residual-Control   Outer-Iter.   Inner-Iter.     Column Row Layer    Maximum-Head-Change  Column Row Layer    Maximum-Flux-Residual          L2-NORM 
          0                11           2             4    7     1      -0.2452458903E-02       4    7    1        -0.1280402320E+00      0.3136286406E+00
          0                12           2             4    7     1      -0.2061405582E-02       4    7    1        -0.1076237574E+00      0.2636194351E+00
          0                13           2             4    7     1      -0.1735072250E-02       4    7    1        -0.9058624485E-01      0.2218868377E+00
          0                14           2             4    7     1      -0.1462071274E-02       4    7    1        -0.7633315787E-01      0.1869745605E+00
          0                15           2             4    7     1      -0.1233202612E-02       4    7    1        -0.6438417184E-01      0.1577060710E+00
          0                16           2             4    7     1      -0.1040965434E-02       4    7    1        -0.5434767644E-01      0.1331221384E+00
          0                17           2             4    7     1      -0.8792599085E-03       4    7    1        -0.4590520579E-01      0.1124426953E+00
          0                18           2             4    7     1      -0.7430882172E-03       4    7    1        -0.3879582917E-01      0.9502860448E-01
          0                19           2             4    7     1      -0.6283104636E-03       4    7    1        -0.3280340701E-01      0.8035044192E-01
          0                20           2             4    7     1      -0.5314498843E-03       4    7    1        -0.2774642117E-01      0.6796358738E-01
                                                   Max.-Head-Change                         Max.-Flux-Residual
  Residual-Control   Outer-Iter.   Inner-Iter.     Column Row Layer    Maximum-Head-Change  Column Row Layer    Maximum-Flux-Residual          L2-NORM 
          0                21           2             4    7     1      -0.4496940587E-03       4    7    1        -0.2347803820E-01      0.5750837930E-01
          0                22           2             4    7     1      -0.3805842609E-03       4    7    1        -0.1986989066E-01      0.4867038739E-01
          0                23           2             4    7     1      -0.3221926560E-03       4    7    1        -0.1682132835E-01      0.4120307386E-01
          0                24           2             4    7     1      -0.2728123153E-03       4    7    1        -0.1424323440E-01      0.3488815091E-01
          0                25           2             4    7     1      -0.2310430172E-03       4    7    1        -0.1206250472E-01      0.2954655353E-01
          0                26           2             4    7     1      -0.1956913327E-03       4    7    1        -0.1021683169E-01      0.2502566195E-01
          0                27           2             4    7     1      -0.1657623504E-03       4    7    1        -0.8654272046E-02      0.2119824365E-01
          0                28           2             4    7     1      -0.1404422387E-03       4    7    1        -0.7332336548E-02      0.1796022321E-01
          0                29           2             4    7     1      -0.1189721244E-03       4    7    1        -0.6211405212E-02      0.1521455313E-01
          0                30           1             4    7     1      -0.1008068356E-03       4    7    1        -0.5263015178E-02      0.1289151518E-01
          0                31           1             4    7     1      -0.8543462593E-04       4    7    1        -0.4460448915E-02      0.1092566592E-01

    ------------------------------------------------
       NWT REQUIRED           31 OUTER ITERATIONS 
       AND A TOTAL OF         60 INNER ITERATIONS.
    ------------------------------------------------

 NO OUTPUT CONTROL FOR STRESS PERIOD    8   TIME STEP   14
 
 SOLVING FOR HEAD 
                                                   Max.-Head-Change                         Max.-Flux-Residual
  Residual-Control   Outer-Iter.   Inner-Iter.     Column Row Layer    Maximum-Head-Change  Column Row Layer    Maximum-Flux-Residual          L2-NORM 
          0                 1           2             4    7     1      -0.1408922787E+00       4    7    1        -0.7408942541E+01      0.1564801163E+02
          0                 2           2             5    8     1      -0.6268598014E-02       5    8    1        -0.3469476469E+00      0.8824824918E+00
          0                 3           2             4    7     1      -0.1222787770E-01       4    7    1        -0.6389613205E+00      0.1525661627E+01
          0                 4           2             4    7     1      -0.8812805907E-02       5    8    1        -0.4628170287E+00      0.1130855710E+01
          0                 5           2             4    7     1      -0.7340410729E-02       4    7    1        -0.3832395049E+00      0.9383292442E+00
          0                 6           2             4    7     1      -0.6047042812E-02       5    6    1        -0.3157261062E+00      0.7733509064E+00
          0                 7           2             4    7     1      -0.5017112931E-02       4    7    1        -0.2619370187E+00      0.6415985624E+00
          0                 8           2             4    7     1      -0.4177845443E-02       4    7    1        -0.2181198721E+00      0.5342749005E+00
          0                 9           2             4    7     1      -0.3489920061E-02       4    7    1        -0.1822041811E+00      0.4463006654E+00
          0                10           2             4    7     1      -0.2922598983E-02       4    7    1        -0.1525850803E+00      0.3737501067E+00
                                                   Max.-Head-Change                         Max.-Flux-Residual
  Residual-Control   Outer-Iter.   Inner-Iter.     Column Row Layer    Maximum-Head-Change  Column Row Layer    Maximum-Flux-Residual          L2-NORM 
          0                11           2             4    7     1      -0.2452469549E-02       4    7    1        -0.1280402319E+00      0.3136286399E+00
          0                12           2             4    7     1      -0.2061414531E-02       4    7    1        -0.1076237573E+00      0.2636194345E+00
          0                13           2             4    7     1      -0.1735079783E-02       4    7    1        -0.9058624479E-01      0.2218868372E+00
          0                14           2             4    7     1      -0.1462077622E-02       4    7    1        -0.7633315782E-01      0.1869745601E+00
          0                15           2             4    7     1      -0.1233207965E-02       4    7    1        -0.6438417178E-01      0.1577060707E+00
          0                16           2             4    7     1      -0.1040969953E-02       4    7    1        -0.5434767641E-01      0.1331221381E+00
          0                17           2             4    7     1      -0.8792637255E-03       4    7    1        -0.4590520576E-01      0.1124426951E+00
          0                18           2             4    7     1      -0.7430914431E-03       4    7    1        -0.3879582916E-01      0.9502860427E-01
          0                19           2             4    7     1      -0.6283131917E-03       4    7    1        -0.3280340701E-01      0.8035044177E-01
          0                20           2             4    7     1      -0.5314521916E-03       4    7    1        -0.2774642114E-01      0.6796358722E-01
                                                   Max.-Head-Change                         Max.-Flux-Residual
  Residual-Control   Outer-Iter.   Inner-Iter.     Column Row Layer    Maximum-Head-Change  Column Row Layer    Maximum-Flux-Residual          L2-NORM 
          0                21           2             4    7     1      -0.4496960108E-03       4    7    1        -0.2347803817E-01      0.5750837917E-01
          0                22           2             4    7     1      -0.3805859133E-03       4    7    1        -0.1986989064E-01      0.4867038727E-01
          0                23           2             4    7     1      -0.3221940546E-03       4    7    1        -0.1682132833E-01      0.4120307376E-01
          0                24           2             4    7     1      -0.2728134997E-03       4    7    1        -0.1424323439E-01      0.3488815084E-01
          0                25           2             4    7     1      -0.2310440203E-03       4    7    1        -0.1206250471E-01      0.2954655345E-01
          0                26           2             4    7     1      -0.1956921820E-03       4    7    1        -0.1021683167E-01      0.2502566187E-01
          0                27           2             4    7     1      -0.1657630697E-03       4    7    1        -0.8654272040E-02      0.2119824361E-01
          0                28           2             4    7     1      -0.1404428488E-03       4    7    1        -0.7332336563E-02      0.1796022319E-01
          0                29           2             4    7     1      -0.1189726406E-03       4    7    1        -0.6211405206E-02      0.1521455309E-01
          0                30           1             4    7     1      -0.1008072736E-03       4    7    1        -0.5263015189E-02      0.1289151515E-01
          0                31           1             4    7     1      -0.8543499660E-04       4    7    1        -0.4460448903E-02      0.1092566589E-01

    ------------------------------------------------
       NWT REQUIRED           31 OUTER ITERATIONS 
       AND A TOTAL OF         60 INNER ITERATIONS.
    ------------------------------------------------

 OUTPUT CONTROL FOR STRESS PERIOD    8   TIME STEP   15
    PRINT BUDGET
    SAVE BUDGET
 UBDSV1 SAVING "         STORAGE" ON UNIT 102 AT TIME STEP 15, STRESS PERIOD   8
 UBDSV2 SAVING "   CONSTANT HEAD" ON UNIT 102 AT TIME STEP 15, STRESS PERIOD   8
 UBDSV1 SAVING "FLOW RIGHT FACE " ON UNIT 102 AT TIME STEP 15, STRESS PERIOD   8
 UBDSV1 SAVING "FLOW FRONT FACE " ON UNIT 102 AT TIME STEP 15, STRESS PERIOD   8

  HEAD DEP BOUNDS   PERIOD    8   STEP    15
 BOUNDARY      1   LAYER   1   ROW    13   COL     1   RATE   -0.298995    
 BOUNDARY      2   LAYER   1   ROW    14   COL     9   RATE    0.285478    



 STREAM LISTING     PERIOD      8   STEP       15

 LAYER ROW COL. STREAM  RCH.  FLOW INTO     FLOW TO   FLOW OUT OF   OVRLND.     DIRECT     STREAM       STREAM     STREAM     STREAM   STREAMBED  STREAMBED
                SEG.NO.  NO.  STRM. RCH.    AQUIFER    STRM. RCH.    RUNOFF     PRECIP       ET          HEAD       DEPTH      WIDTH   CONDCTNC.   GRADIENT

   1    1    1     1     1    7.4999E+01  4.2231E-01   7.4577E+01  0.000E+00  0.000E+00  0.000E+00  1.09475E+03  1.698E+00  1.998E+01  8.990E-02  1.566E+00
   1    2    2     1     2    7.4577E+01  6.5422E-01   7.3923E+01  0.000E+00  0.000E+00  0.000E+00  1.08975E+03  1.692E+00  1.992E+01  1.394E-01  1.564E+00
   1    3    3     1     3    7.3923E+01  5.5813E-01   7.3365E+01  0.000E+00  0.000E+00  0.000E+00  1.08410E+03  1.685E+00  1.985E+01  1.191E-01  1.562E+00
   1    3    4     1     4    7.3365E+01  5.1411E-01   7.2851E+01  0.000E+00  0.000E+00  0.000E+00  1.07909E+03  1.679E+00  1.980E+01  1.099E-01  1.560E+00
   1    4    5     2     1    7.0851E+01  4.0967E-01   7.0441E+01  0.000E+00  0.000E+00  0.000E+00  1.07419E+03  2.252E+00  1.200E+01  7.800E-02  1.751E+00
   1    5    6     2     2    7.0441E+01  3.1471E-01   7.0126E+01  0.000E+00  0.000E+00  0.000E+00  1.06875E+03  2.245E+00  1.200E+01  6.000E-02  1.748E+00
   1    6    6     2     3    7.0126E+01  3.1435E-01   6.9812E+01  0.000E+00  0.000E+00  0.000E+00  1.06403E+03  2.239E+00  1.200E+01  6.000E-02  1.746E+00
   1    7    6     2     4    6.9812E+01  3.1399E-01   6.9498E+01  0.000E+00  0.000E+00  0.000E+00  1.05931E+03  2.233E+00  1.200E+01  6.000E-02  1.744E+00
   1    8    6     2     5    6.9498E+01  3.1363E-01   6.9184E+01  0.000E+00  0.000E+00  0.000E+00  1.05459E+03  2.227E+00  1.200E+01  6.000E-02  1.742E+00
   1    3    5     3     1    2.0000E+00  2.8252E-01   1.7175E+00  0.000E+00  0.000E+00  0.000E+00  1.07555E+03  1.909E+00  9.636E+00  7.227E-02  1.955E+00
   1    3    6     3     2    1.7175E+00  2.4905E-01   1.4684E+00  0.000E+00  0.000E+00  0.000E+00  1.07264E+03  1.727E+00  8.909E+00  6.682E-02  1.864E+00
   1    3    7     3     3    1.4684E+00  1.9718E-01   1.2712E+00  0.000E+00  0.000E+00  0.000E+00  1.06987E+03  1.555E+00  8.218E+00  5.547E-02  1.777E+00
   1    4    8     3     4    1.2712E+00  2.2567E-01   1.0456E+00  0.000E+00  0.000E+00  0.000E+00  1.06682E+03  1.364E+00  7.455E+00  6.709E-02  1.682E+00
   1    5    8     3     5    1.0456E+00  1.5790E-01   8.8768E-01  0.000E+00  0.000E+00  0.000E+00  1.06362E+03  1.164E+00  6.655E+00  4.991E-02  1.582E+00
   1    6    8     3     6    8.8768E-01  5.5980E-02   8.3170E-01  0.000E+00  0.000E+00  0.000E+00  1.06158E+03  1.036E+00  6.145E+00  1.844E-02  1.518E+00
   1    5   10     4     1    1.0000E+01  9.0919E-02   9.9091E+00  0.000E+00  0.000E+00  0.000E+00  1.07836E+03  6.368E-01  1.000E+01  2.500E-02  1.212E+00
   1    5    9     4     2    9.9091E+00  1.8158E-01   9.7275E+00  0.000E+00  0.000E+00  0.000E+00  1.07154E+03  6.315E-01  1.000E+01  5.000E-02  1.211E+00
   1    6    8     4     3    9.7275E+00  1.2689E-01   9.6006E+00  0.000E+00  0.000E+00  0.000E+00  1.06381E+03  6.256E-01  1.000E+01  3.500E-02  1.209E+00
   1    6    8     5     1    1.0432E+01  2.2686E-01   1.0205E+01  0.000E+00  0.000E+00  0.000E+00  1.05868E+03  6.790E-01  1.542E+01  6.166E-02  1.226E+00
   1    7    7     5     2    1.0205E+01  2.7894E-01   9.9265E+00  0.000E+00  0.000E+00  0.000E+00  1.05417E+03  6.732E-01  1.519E+01  7.594E-02  1.224E+00
   1    8    7     5     3    9.9265E+00  1.9221E-01   9.7343E+00  0.000E+00  0.000E+00  0.000E+00  1.04992E+03  6.676E-01  1.497E+01  5.241E-02  1.223E+00
   1    8    6     5     4    9.7343E+00  1.3577E-01   9.5985E+00  0.000E+00  0.000E+00  0.000E+00  1.04691E+03  6.637E-01  1.482E+01  3.706E-02  1.221E+00
   1    9    6     6     1    7.8783E+01  3.2569E-01   7.8457E+01  0.000E+00  0.000E+00  0.000E+00  1.04516E+03  2.428E+00  1.200E+01  6.000E-02  1.809E+00
   1   10    7     6     2    7.8457E+01  3.2533E-01   7.8132E+01  0.000E+00  0.000E+00  0.000E+00  1.04060E+03  2.422E+00  1.200E+01  6.000E-02  1.807E+00
   1   11    7     6     3    7.8132E+01  3.2497E-01   7.7807E+01  0.000E+00  0.000E+00  0.000E+00  1.03605E+03  2.416E+00  1.200E+01  6.000E-02  1.805E+00
   1   12    7     6     4    7.7807E+01  3.2461E-01   7.7482E+01  0.000E+00  0.000E+00  0.000E+00  1.03150E+03  2.410E+00  1.200E+01  6.000E-02  1.803E+00
   1   13    7     6     5    7.7482E+01  2.5848E-02   7.7456E+01  0.000E+00  0.000E+00  0.000E+00  1.02832E+03  2.407E+00  1.200E+01  2.400E-02  3.590E-01
   1   14    9     7     1    1.5000E+02  1.3317E+00   1.4867E+02  0.000E+00  0.000E+00  0.000E+00  1.03987E+03  2.288E+00  5.529E+01  5.593E-01  7.937E-01
   1   13    8     7     2    1.4867E+02  1.8003E+00   1.4687E+02  0.000E+00  0.000E+00  0.000E+00  1.03478E+03  2.279E+00  5.526E+01  6.148E-01  9.761E-01
   1   13    7     7     3    1.4687E+02  1.3690E+00   1.4550E+02  0.000E+00  0.000E+00  0.000E+00  1.02969E+03  2.271E+00  5.522E+01  5.585E-01  8.171E-01
   1   13    6     8     1    2.2296E+02  1.0167E+00   2.2194E+02  0.000E+00  0.000E+00  0.000E+00  1.02514E+03  3.265E+00  4.735E+01  4.825E-01  7.024E-01
   1   13    5     8     2    2.2194E+02  2.0027E-01   2.2174E+02  0.000E+00  0.000E+00  0.000E+00  1.01889E+03  3.262E+00  4.730E+01  4.820E-01  1.385E-01
   1   13    4     8     3    2.2174E+02 -1.9164E+00   2.2365E+02  0.000E+00  0.000E+00  0.000E+00  1.01264E+03  3.267E+00  4.737E+01  4.827E+00 -1.323E-01
   1   13    3     8     4    2.2365E+02 -3.0694E+00   2.2672E+02  0.000E+00  0.000E+00  0.000E+00  1.00641E+03  3.280E+00  4.757E+01  4.847E+00 -2.111E-01
   1   13    2     8     5    2.2672E+02 -2.5431E+00   2.2927E+02  0.000E+00  0.000E+00  0.000E+00  1.00017E+03  3.296E+00  4.779E+01  4.870E+00 -1.741E-01
   1   13    1     8     6    2.2927E+02 -2.0097E+00   2.3128E+02  0.000E+00  0.000E+00  0.000E+00  9.95183E+02  3.308E+00  4.797E+01  2.933E+00 -2.284E-01



 UBDSV3 SAVING "           GW ET" ON UNIT  61 AT TIME STEP 15, STRESS PERIOD   8
 UBDSV3 SAVING "    UZF RECHARGE" ON UNIT  61 AT TIME STEP 15, STRESS PERIOD   8
 UBDSV3 SAVING " SURFACE LEAKAGE" ON UNIT  61 AT TIME STEP 15, STRESS PERIOD   8
 UBDSV3 SAVING "       HORT+DUNN" ON UNIT  61 AT TIME STEP 15, STRESS PERIOD   8
 UBDSV3 SAVING "  STORAGE CHANGE" ON UNIT  61 AT TIME STEP 15, STRESS PERIOD   8


UNSATURATED ZONE PACKAGE VOLUMETRIC BUDGET FOR  TIME STEP    15 STRESS PERIOD    8
  ------------------------------------------------------------------------------



     CUMULATIVE VOLUMES      L**3       RATES FOR THIS TIME STEP      L**3/T
     ------------------                 ------------------------

           IN:                                      IN:
           ---                                      ---
        INFILTRATION =   217923568.5997          INFILTRATION =          88.1754

          OUT:                                     OUT:
          ----                                     ----
              UZF ET =   181840437.8865                UZF ET =          60.7922
        UZF RECHARGE =       73224.0000          UZF RECHARGE =       0.0000E+00

            IN - OUT =    36009906.7132              IN - OUT =          27.3832

          STORAGE:                                 STORAGE:
          --------                                 --------
      STORAGE CHANGE =    36009903.1780        STORAGE CHANGE =          27.3832

 PERCENT DISCREPANCY IS DIFFERENCE BETWEEN IN-OUT MINUS CHANGE IN STORAGE
 DIVIDED BY THE AVERAGE OF IN AND OUT TIMES 100

 PERCENT DISCREPANCY =           0.00     PERCENT DISCREPANCY =           0.00






 

            AG WELLS      PERIOD    8   STEP  15
 AG WELL      1   LAYER   1   ROW     6   COL     4   RATE    -14.5546    
 AG WELL      2   LAYER   1   ROW     6   COL     5   RATE    -14.5546    
 AG WELL      3   LAYER   1   ROW     7   COL     4   RATE    -14.5546    
 AG WELL      4   LAYER   1   ROW     7   COL     5   RATE    -14.5546    
 AG WELL      5   LAYER   1   ROW     8   COL     4   RATE    -14.5546    
 AG WELL      6   LAYER   1   ROW     8   COL     5   RATE    -14.5546    
 
 

        GW IRRIGATION     PERIOD    8   STEP  15
 AG WELL      1   ROW     6   COL     4   RATE     14.5546    
 AG WELL      2   ROW     6   COL     5   RATE     14.5546    
 AG WELL      3   ROW     7   COL     4   RATE     14.5546    
 AG WELL      4   ROW     7   COL     5   RATE     14.5546    
 AG WELL      5   ROW     8   COL     4   RATE     14.5546    
 AG WELL      6   ROW     8   COL     5   RATE     14.5546    
 
1
  VOLUMETRIC BUDGET FOR AGRICULTURAL FIELDS AT  END OF TIME STEP   15, STRESS PERIOD   8
  ------------------------------------------------------------------------------

     CUMULATIVE VOLUMES      L**3       RATES FOR THIS TIME STEP      L**3/T
     ------------------                 ------------------------

           IN:                                      IN:
           ---                                      ---
               AG WELLS  =   203362384.0000                 AG WELLS  =          87.3279
      DIVERSION SEGMENTS =           0.0000        DIVERSION SEGMENTS =           0.0000
           GW IRRIGATION =           0.0000             GW IRRIGATION =           0.0000
           SW IRRIGATION =           0.0000             SW IRRIGATION =           0.0000
        SYSTEM LOSSES GW =           0.0000          SYSTEM LOSSES GW =           0.0000
        SYSTEM LOSSES SW =           0.0000          SYSTEM LOSSES SW =           0.0000

                TOTAL IN =   203362384.0000                  TOTAL IN =          87.3279

          OUT:                                     OUT:
          ----                                     ----
               AG WELLS  =           0.0000                 AG WELLS  =           0.0000
      DIVERSION SEGMENTS =           0.0000        DIVERSION SEGMENTS =           0.0000
           GW IRRIGATION =   203362384.0000             GW IRRIGATION =          87.3279
           SW IRRIGATION =           0.0000             SW IRRIGATION =           0.0000
        SYSTEM LOSSES GW =           0.0000          SYSTEM LOSSES GW =           0.0000
        SYSTEM LOSSES SW =           0.0000          SYSTEM LOSSES SW =           0.0000

               TOTAL OUT =   203362384.0000                 TOTAL OUT =          87.3279

                IN - OUT =           0.0000                  IN - OUT =           0.0000

     PERCENT DISCREPANCY =           0.00         PERCENT DISCREPANCY =           0.00



1
  VOLUMETRIC BUDGET FOR ENTIRE MODEL AT END OF TIME STEP   15, STRESS PERIOD   8
  ------------------------------------------------------------------------------

     CUMULATIVE VOLUMES      L**3       RATES FOR THIS TIME STEP      L**3/T
     ------------------                 ------------------------

           IN:                                      IN:
           ---                                      ---
             STORAGE     =   208798320.0000               STORAGE     =          86.4779
       CONSTANT HEAD     =           0.0000         CONSTANT HEAD     =           0.0000
     HEAD DEP BOUNDS     =     4904513.0000       HEAD DEP BOUNDS     =           0.2855
      STREAM LEAKAGE     =   219645072.0000        STREAM LEAKAGE     =          13.2610
        UZF RECHARGE     =       73223.9531          UZF RECHARGE     =           0.0000
               GW ET     =           0.0000                 GW ET     =           0.0000
     SURFACE LEAKAGE     =           0.0000       SURFACE LEAKAGE     =           0.0000
           AG WELLS      =           0.0000             AG WELLS      =           0.0000

                TOTAL IN =   433421120.0000                  TOTAL IN =         100.0244

          OUT:                                     OUT:
          ----                                     ----
             STORAGE     =    43613124.0000               STORAGE     =           1.3073
       CONSTANT HEAD     =           0.0000         CONSTANT HEAD     =           0.0000
     HEAD DEP BOUNDS     =     5067678.0000       HEAD DEP BOUNDS     =           0.2990
      STREAM LEAKAGE     =   173063824.0000        STREAM LEAKAGE     =           9.5386
        UZF RECHARGE     =           0.0000          UZF RECHARGE     =           0.0000
               GW ET     =     8313708.0000                 GW ET     =           1.5490
     SURFACE LEAKAGE     =           0.0000       SURFACE LEAKAGE     =           0.0000
           AG WELLS      =   203362384.0000             AG WELLS      =          87.3279

               TOTAL OUT =   433420736.0000                 TOTAL OUT =         100.0218

                IN - OUT =         384.0000                  IN - OUT =       2.6550E-03

     PERCENT DISCREPANCY =           0.00         PERCENT DISCREPANCY =           0.00






         TIME SUMMARY AT END OF TIME STEP   15 IN STRESS PERIOD    8
                    SECONDS     MINUTES      HOURS       DAYS        YEARS
                    -----------------------------------------------------------
   TIME STEP LENGTH  87667.      1461.1      24.352      1.0147     2.77799E-03
 STRESS PERIOD TIME 1.31500E+06  21917.      365.28      15.220     4.16698E-02
         TOTAL TIME 1.71814E+07 2.86357E+05  4772.6      198.86     0.54445    
1
 
 SOLVING FOR HEAD 
                                                   Max.-Head-Change                         Max.-Flux-Residual
  Residual-Control   Outer-Iter.   Inner-Iter.     Column Row Layer    Maximum-Head-Change  Column Row Layer    Maximum-Flux-Residual          L2-NORM 
          0                 1           2             4    7     1      -0.1387615661E+00       4    7    1        -0.7298671317E+01      0.1541951977E+02
          0                 2           2             5    8     1      -0.6571968776E-02       5    8    1        -0.3634532585E+00      0.9205124373E+00
          0                 3           2             4    7     1      -0.1220661833E-01       4    7    1        -0.6378595971E+00      0.1522182159E+01
          0                 4           2             4    7     1      -0.8814975934E-02       5    8    1        -0.4629808064E+00      0.1131207565E+01
          0                 5           2             4    7     1      -0.7340229843E-02       4    7    1        -0.3832285063E+00      0.9382941236E+00
          0                 6           2             4    7     1      -0.6047090691E-02       5    6    1        -0.3157277320E+00      0.7733544149E+00
          0                 7           2             4    7     1      -0.5017132840E-02       4    7    1        -0.2619369086E+00      0.6415982102E+00
          0                 8           2             4    7     1      -0.4177864009E-02       4    7    1        -0.2181198829E+00      0.5342749345E+00
          0                 9           2             4    7     1      -0.3489935370E-02       4    7    1        -0.1822041799E+00      0.4463006610E+00
          0                10           2             4    7     1      -0.2922611824E-02       4    7    1        -0.1525850803E+00      0.3737501063E+00
                                                   Max.-Head-Change                         Max.-Flux-Residual
  Residual-Control   Outer-Iter.   Inner-Iter.     Column Row Layer    Maximum-Head-Change  Column Row Layer    Maximum-Flux-Residual          L2-NORM 
          0                11           2             4    7     1      -0.2452480323E-02       4    7    1        -0.1280402318E+00      0.3136286393E+00
          0                12           2             4    7     1      -0.2061423587E-02       4    7    1        -0.1076237573E+00      0.2636194340E+00
          0                13           2             4    7     1      -0.1735087405E-02       4    7    1        -0.9058624474E-01      0.2218868368E+00
          0                14           2             4    7     1      -0.1462084045E-02       4    7    1        -0.7633315778E-01      0.1869745597E+00
          0                15           2             4    7     1      -0.1233213383E-02       4    7    1        -0.6438417175E-01      0.1577060704E+00
          0                16           2             4    7     1      -0.1040974526E-02       4    7    1        -0.5434767637E-01      0.1331221378E+00
          0                17           2             4    7     1      -0.8792675884E-03       4    7    1        -0.4590520574E-01      0.1124426949E+00
          0                18           2             4    7     1      -0.7430947072E-03       4    7    1        -0.3879582912E-01      0.9502860408E-01
          0                19           2             4    7     1      -0.6283159514E-03       4    7    1        -0.3280340698E-01      0.8035044160E-01
          0                20           2             4    7     1      -0.5314545265E-03       4    7    1        -0.2774642115E-01      0.6796358709E-01
                                                   Max.-Head-Change                         Max.-Flux-Residual
  Residual-Control   Outer-Iter.   Inner-Iter.     Column Row Layer    Maximum-Head-Change  Column Row Layer    Maximum-Flux-Residual          L2-NORM 
          0                21           2             4    7     1      -0.4496979865E-03       4    7    1        -0.2347803816E-01      0.5750837906E-01
          0                22           2             4    7     1      -0.3805875850E-03       4    7    1        -0.1986989063E-01      0.4867038718E-01
          0                23           2             4    7     1      -0.3221954700E-03       4    7    1        -0.1682132833E-01      0.4120307369E-01
          0                24           2             4    7     1      -0.2728146982E-03       4    7    1        -0.1424323438E-01      0.3488815078E-01
          0                25           2             4    7     1      -0.2310450352E-03       4    7    1        -0.1206250471E-01      0.2954655339E-01
          0                26           2             4    7     1      -0.1956930419E-03       4    7    1        -0.1021683167E-01      0.2502566182E-01
          0                27           2             4    7     1      -0.1657637982E-03       4    7    1        -0.8654272040E-02      0.2119824357E-01
          0                28           2             4    7     1      -0.1404434658E-03       4    7    1        -0.7332336549E-02      0.1796022314E-01
          0                29           2             4    7     1      -0.1189731630E-03       4    7    1        -0.6211405194E-02      0.1521455307E-01
          0                30           1             4    7     1      -0.1008077160E-03       4    7    1        -0.5263015186E-02      0.1289151515E-01
          0                31           1             4    7     1      -0.8543537239E-04       4    7    1        -0.4460448934E-02      0.1092566589E-01

    ------------------------------------------------
       NWT REQUIRED           31 OUTER ITERATIONS 
       AND A TOTAL OF         60 INNER ITERATIONS.
    ------------------------------------------------

 NO OUTPUT CONTROL FOR STRESS PERIOD    8   TIME STEP   16
 
 SOLVING FOR HEAD 
                                                   Max.-Head-Change                         Max.-Flux-Residual
  Residual-Control   Outer-Iter.   Inner-Iter.     Column Row Layer    Maximum-Head-Change  Column Row Layer    Maximum-Flux-Residual          L2-NORM 
          0                 1           2             4    7     1      -0.1366255928E+00       4    7    1        -0.7187961483E+01      0.1520194932E+02
          0                 2           2             5    8     1      -0.6861950038E-02       5    8    1        -0.3792168328E+00      0.9572291123E+00
          0                 3           2             4    7     1      -0.1218530695E-01       4    7    1        -0.6367534685E+00      0.1518801620E+01
          0                 4           2             4    7     1      -0.8817151615E-02       5    8    1        -0.4631372493E+00      0.1131549425E+01
          0                 5           2             4    7     1      -0.7340048764E-02       4    7    1        -0.3832174632E+00      0.9382599986E+00
          0                 6           2             4    7     1      -0.6047138894E-02       5    6    1        -0.3157292890E+00      0.7733578241E+00
          0                 7           2             4    7     1      -0.5017152970E-02       4    7    1        -0.2619367980E+00      0.6415978680E+00
          0                 8           2             4    7     1      -0.4177882765E-02       4    7    1        -0.2181198939E+00      0.5342749676E+00
          0                 9           2             4    7     1      -0.3489950838E-02       4    7    1        -0.1822041787E+00      0.4463006568E+00
          0                10           2             4    7     1      -0.2922624797E-02       4    7    1        -0.1525850803E+00      0.3737501060E+00
                                                   Max.-Head-Change                         Max.-Flux-Residual
  Residual-Control   Outer-Iter.   Inner-Iter.     Column Row Layer    Maximum-Head-Change  Column Row Layer    Maximum-Flux-Residual          L2-NORM 
          0                11           2             4    7     1      -0.2452491207E-02       4    7    1        -0.1280402317E+00      0.3136286387E+00
          0                12           2             4    7     1      -0.2061432736E-02       4    7    1        -0.1076237572E+00      0.2636194336E+00
          0                13           2             4    7     1      -0.1735095106E-02       4    7    1        -0.9058624468E-01      0.2218868364E+00
          0                14           2             4    7     1      -0.1462090534E-02       4    7    1        -0.7633315773E-01      0.1869745594E+00
          0                15           2             4    7     1      -0.1233218856E-02       4    7    1        -0.6438417172E-01      0.1577060701E+00
          0                16           2             4    7     1      -0.1040979147E-02       4    7    1        -0.5434767636E-01      0.1331221376E+00
          0                17           2             4    7     1      -0.8792714907E-03       4    7    1        -0.4590520571E-01      0.1124426947E+00
          0                18           2             4    7     1      -0.7430980053E-03       4    7    1        -0.3879582910E-01      0.9502860391E-01
          0                19           2             4    7     1      -0.6283187401E-03       4    7    1        -0.3280340696E-01      0.8035044147E-01
          0                20           2             4    7     1      -0.5314568850E-03       4    7    1        -0.2774642112E-01      0.6796358697E-01
                                                   Max.-Head-Change                         Max.-Flux-Residual
  Residual-Control   Outer-Iter.   Inner-Iter.     Column Row Layer    Maximum-Head-Change  Column Row Layer    Maximum-Flux-Residual          L2-NORM 
          0                21           2             4    7     1      -0.4496999823E-03       4    7    1        -0.2347803815E-01      0.5750837896E-01
          0                22           2             4    7     1      -0.3805892745E-03       4    7    1        -0.1986989062E-01      0.4867038709E-01
          0                23           2             4    7     1      -0.3221968998E-03       4    7    1        -0.1682132830E-01      0.4120307361E-01
          0                24           2             4    7     1      -0.2728159090E-03       4    7    1        -0.1424323436E-01      0.3488815071E-01
          0                25           2             4    7     1      -0.2310460604E-03       4    7    1        -0.1206250469E-01      0.2954655335E-01
          0                26           2             4    7     1      -0.1956939104E-03       4    7    1        -0.1021683167E-01      0.2502566178E-01
          0                27           2             4    7     1      -0.1657645337E-03       4    7    1        -0.8654272030E-02      0.2119824353E-01
          0                28           2             4    7     1      -0.1404440887E-03       4    7    1        -0.7332336544E-02      0.1796022311E-01
          0                29           2             4    7     1      -0.1189736915E-03       4    7    1        -0.6211405208E-02      0.1521455304E-01
          0                30           1             4    7     1      -0.1008081638E-03       4    7    1        -0.5263015184E-02      0.1289151511E-01
          0                31           1             4    7     1      -0.8543575131E-04       4    7    1        -0.4460448906E-02      0.1092566587E-01

    ------------------------------------------------
       NWT REQUIRED           31 OUTER ITERATIONS 
       AND A TOTAL OF         60 INNER ITERATIONS.
    ------------------------------------------------

 NO OUTPUT CONTROL FOR STRESS PERIOD    8   TIME STEP   17
 
 SOLVING FOR HEAD 
                                                   Max.-Head-Change                         Max.-Flux-Residual
  Residual-Control   Outer-Iter.   Inner-Iter.     Column Row Layer    Maximum-Head-Change  Column Row Layer    Maximum-Flux-Residual          L2-NORM 
          0                 1           2             4    7     1      -0.1344875855E+00       4    7    1        -0.7076994018E+01      0.1499464971E+02
          0                 2           2             5    8     1      -0.7139366580E-02       5    8    1        -0.3942845358E+00      0.9926872188E+00
          0                 3           2             4    7     1      -0.1216397573E-01       4    7    1        -0.6356447434E+00      0.1515516017E+01
          0                 4           2             4    7     1      -0.8819329663E-02       5    8    1        -0.4632868137E+00      0.1131881680E+01
          0                 5           2             4    7     1      -0.7339867763E-02       4    7    1        -0.3832063936E+00      0.9382268303E+00
          0                 6           2             4    7     1      -0.6047187350E-02       5    6    1        -0.3157307810E+00      0.7733611380E+00
          0                 7           2             4    7     1      -0.5017173290E-02       4    7    1        -0.2619366872E+00      0.6415975357E+00
          0                 8           2             4    7     1      -0.4177901681E-02       4    7    1        -0.2181199048E+00      0.5342750000E+00
          0                 9           2             4    7     1      -0.3489966439E-02       4    7    1        -0.1822041775E+00      0.4463006529E+00
          0                10           2             4    7     1      -0.2922637882E-02       4    7    1        -0.1525850803E+00      0.3737501058E+00
                                                   Max.-Head-Change                         Max.-Flux-Residual
  Residual-Control   Outer-Iter.   Inner-Iter.     Column Row Layer    Maximum-Head-Change  Column Row Layer    Maximum-Flux-Residual          L2-NORM 
          0                11           2             4    7     1      -0.2452502185E-02       4    7    1        -0.1280402316E+00      0.3136286382E+00
          0                12           2             4    7     1      -0.2061441964E-02       4    7    1        -0.1076237571E+00      0.2636194332E+00
          0                13           2             4    7     1      -0.1735102872E-02       4    7    1        -0.9058624463E-01      0.2218868361E+00
          0                14           2             4    7     1      -0.1462097078E-02       4    7    1        -0.7633315770E-01      0.1869745591E+00
          0                15           2             4    7     1      -0.1233224376E-02       4    7    1        -0.6438417169E-01      0.1577060699E+00
          0                16           2             4    7     1      -0.1040983806E-02       4    7    1        -0.5434767633E-01      0.1331221374E+00
          0                17           2             4    7     1      -0.8792754267E-03       4    7    1        -0.4590520569E-01      0.1124426945E+00
          0                18           2             4    7     1      -0.7431013316E-03       4    7    1        -0.3879582908E-01      0.9502860377E-01
          0                19           2             4    7     1      -0.6283215530E-03       4    7    1        -0.3280340695E-01      0.8035044134E-01
          0                20           2             4    7     1      -0.5314592637E-03       4    7    1        -0.2774642110E-01      0.6796358687E-01
                                                   Max.-Head-Change                         Max.-Flux-Residual
  Residual-Control   Outer-Iter.   Inner-Iter.     Column Row Layer    Maximum-Head-Change  Column Row Layer    Maximum-Flux-Residual          L2-NORM 
          0                21           2             4    7     1      -0.4497019956E-03       4    7    1        -0.2347803815E-01      0.5750837888E-01
          0                22           2             4    7     1      -0.3805909779E-03       4    7    1        -0.1986989060E-01      0.4867038702E-01
          0                23           2             4    7     1      -0.3221983420E-03       4    7    1        -0.1682132830E-01      0.4120307356E-01
          0                24           2             4    7     1      -0.2728171302E-03       4    7    1        -0.1424323437E-01      0.3488815066E-01
          0                25           2             4    7     1      -0.2310470951E-03       4    7    1        -0.1206250471E-01      0.2954655331E-01
          0                26           2             4    7     1      -0.1956947864E-03       4    7    1        -0.1021683166E-01      0.2502566175E-01
          0                27           2             4    7     1      -0.1657652758E-03       4    7    1        -0.8654272024E-02      0.2119824348E-01
          0                28           2             4    7     1      -0.1404447175E-03       4    7    1        -0.7332336539E-02      0.1796022308E-01
          0                29           2             4    7     1      -0.1189742241E-03       4    7    1        -0.6211405200E-02      0.1521455302E-01
          0                30           1             4    7     1      -0.1008086146E-03       4    7    1        -0.5263015173E-02      0.1289151510E-01
          0                31           1             4    7     1      -0.8543613398E-04       4    7    1        -0.4460448919E-02      0.1092566584E-01

    ------------------------------------------------
       NWT REQUIRED           31 OUTER ITERATIONS 
       AND A TOTAL OF         60 INNER ITERATIONS.
    ------------------------------------------------

 NO OUTPUT CONTROL FOR STRESS PERIOD    8   TIME STEP   18
 
 SOLVING FOR HEAD 
                                                   Max.-Head-Change                         Max.-Flux-Residual
  Residual-Control   Outer-Iter.   Inner-Iter.     Column Row Layer    Maximum-Head-Change  Column Row Layer    Maximum-Flux-Residual          L2-NORM 
          0                 1           2             4    7     1      -0.1323501209E+00       4    7    1        -0.6965914239E+01      0.1479701034E+02
          0                 2           2             5    8     1      -0.7404981641E-02       5    8    1        -0.4086991339E+00      0.1026945465E+01
          0                 3           2             4    7     1      -0.1214265037E-01       4    7    1        -0.6345348754E+00      0.1512321271E+01
          0                 4           2             4    7     1      -0.8821507450E-02       5    8    1        -0.4634299213E+00      0.1132204733E+01
          0                 5           2             4    7     1      -0.7339687054E-02       4    7    1        -0.3831953122E+00      0.9381945786E+00
          0                 6           2             4    7     1      -0.6047235995E-02       5    6    1        -0.3157322120E+00      0.7733643605E+00
          0                 7           2             4    7     1      -0.5017193774E-02       4    7    1        -0.2619365763E+00      0.6415972126E+00
          0                 8           2             4    7     1      -0.4177920732E-02       4    7    1        -0.2181199158E+00      0.5342750315E+00
          0                 9           2             4    7     1      -0.3489982153E-02       4    7    1        -0.1822041763E+00      0.4463006491E+00
          0                10           2             4    7     1      -0.2922651062E-02       4    7    1        -0.1525850804E+00      0.3737501056E+00
                                                   Max.-Head-Change                         Max.-Flux-Residual
  Residual-Control   Outer-Iter.   Inner-Iter.     Column Row Layer    Maximum-Head-Change  Column Row Layer    Maximum-Flux-Residual          L2-NORM 
          0                11           2             4    7     1      -0.2452513243E-02       4    7    1        -0.1280402316E+00      0.3136286378E+00
          0                12           2             4    7     1      -0.2061451258E-02       4    7    1        -0.1076237571E+00      0.2636194328E+00
          0                13           2             4    7     1      -0.1735110696E-02       4    7    1        -0.9058624460E-01      0.2218868358E+00
          0                14           2             4    7     1      -0.1462103671E-02       4    7    1        -0.7633315766E-01      0.1869745589E+00
          0                15           2             4    7     1      -0.1233229936E-02       4    7    1        -0.6438417166E-01      0.1577060697E+00
          0                16           2             4    7     1      -0.1040988500E-02       4    7    1        -0.5434767631E-01      0.1331221372E+00
          0                17           2             4    7     1      -0.8792793909E-03       4    7    1        -0.4590520566E-01      0.1124426944E+00
          0                18           2             4    7     1      -0.7431046821E-03       4    7    1        -0.3879582907E-01      0.9502860367E-01
          0                19           2             4    7     1      -0.6283243858E-03       4    7    1        -0.3280340694E-01      0.8035044126E-01
          0                20           2             4    7     1      -0.5314616603E-03       4    7    1        -0.2774642110E-01      0.6796358679E-01
                                                   Max.-Head-Change                         Max.-Flux-Residual
  Residual-Control   Outer-Iter.   Inner-Iter.     Column Row Layer    Maximum-Head-Change  Column Row Layer    Maximum-Flux-Residual          L2-NORM 
          0                21           2             4    7     1      -0.4497040228E-03       4    7    1        -0.2347803813E-01      0.5750837881E-01
          0                22           2             4    7     1      -0.3805926941E-03       4    7    1        -0.1986989061E-01      0.4867038696E-01
          0                23           2             4    7     1      -0.3221997950E-03       4    7    1        -0.1682132830E-01      0.4120307357E-01
          0                24           2             4    7     1      -0.2728183603E-03       4    7    1        -0.1424323435E-01      0.3488815063E-01
          0                25           2             4    7     1      -0.2310481362E-03       4    7    1        -0.1206250468E-01      0.2954655327E-01
          0                26           2             4    7     1      -0.1956956690E-03       4    7    1        -0.1021683167E-01      0.2502566172E-01
          0                27           2             4    7     1      -0.1657660234E-03       4    7    1        -0.8654272026E-02      0.2119824347E-01
          0                28           2             4    7     1      -0.1404453508E-03       4    7    1        -0.7332336525E-02      0.1796022305E-01
          0                29           2             4    7     1      -0.1189747602E-03       4    7    1        -0.6211405184E-02      0.1521455301E-01
          0                30           1             4    7     1      -0.1008090693E-03       4    7    1        -0.5263015172E-02      0.1289151524E-01
          0                31           1             4    7     1      -0.8543651915E-04       4    7    1        -0.4460448908E-02      0.1092566591E-01

    ------------------------------------------------
       NWT REQUIRED           31 OUTER ITERATIONS 
       AND A TOTAL OF         60 INNER ITERATIONS.
    ------------------------------------------------

 NO OUTPUT CONTROL FOR STRESS PERIOD    8   TIME STEP   19
 
 SOLVING FOR HEAD 
                                                   Max.-Head-Change                         Max.-Flux-Residual
  Residual-Control   Outer-Iter.   Inner-Iter.     Column Row Layer    Maximum-Head-Change  Column Row Layer    Maximum-Flux-Residual          L2-NORM 
          0                 1           2             4    7     1      -0.1302158239E+00       4    7    1        -0.6854870350E+01      0.1460845440E+02
          0                 2           2             5    8     1      -0.7659517473E-02       5    8    1        -0.4225009858E+00      0.1060056529E+01
          0                 3           2             4    7     1      -0.1212135703E-01       4    7    1        -0.6334253455E+00      0.1509213644E+01
          0                 4           2             4    7     1      -0.8823682299E-02       5    8    1        -0.4635669709E+00      0.1132518954E+01
          0                 5           2             4    7     1      -0.7339506857E-02       4    7    1        -0.3831842337E+00      0.9381632066E+00
          0                 6           2             4    7     1      -0.6047284769E-02       5    6    1        -0.3157335854E+00      0.7733674953E+00
          0                 7           2             4    7     1      -0.5017214393E-02       4    7    1        -0.2619364654E+00      0.6415968984E+00
          0                 8           2             4    7     1      -0.4177939894E-02       4    7    1        -0.2181199268E+00      0.5342750623E+00
          0                 9           2             4    7     1      -0.3489997960E-02       4    7    1        -0.1822041751E+00      0.4463006455E+00
          0                10           2             4    7     1      -0.2922664319E-02       4    7    1        -0.1525850804E+00      0.3737501055E+00
                                                   Max.-Head-Change                         Max.-Flux-Residual
  Residual-Control   Outer-Iter.   Inner-Iter.     Column Row Layer    Maximum-Head-Change  Column Row Layer    Maximum-Flux-Residual          L2-NORM 
          0                11           2             4    7     1      -0.2452524366E-02       4    7    1        -0.1280402315E+00      0.3136286374E+00
          0                12           2             4    7     1      -0.2061460607E-02       4    7    1        -0.1076237570E+00      0.2636194326E+00
          0                13           2             4    7     1      -0.1735118565E-02       4    7    1        -0.9058624456E-01      0.2218868356E+00
          0                14           2             4    7     1      -0.1462110302E-02       4    7    1        -0.7633315762E-01      0.1869745587E+00
          0                15           2             4    7     1      -0.1233235529E-02       4    7    1        -0.6438417162E-01      0.1577060695E+00
          0                16           2             4    7     1      -0.1040993221E-02       4    7    1        -0.5434767628E-01      0.1331221371E+00
          0                17           2             4    7     1      -0.8792833783E-03       4    7    1        -0.4590520563E-01      0.1124426942E+00
          0                18           2             4    7     1      -0.7431080525E-03       4    7    1        -0.3879582906E-01      0.9502860356E-01
          0                19           2             4    7     1      -0.6283272354E-03       4    7    1        -0.3280340693E-01      0.8035044117E-01
          0                20           2             4    7     1      -0.5314640707E-03       4    7    1        -0.2774642109E-01      0.6796358673E-01
                                                   Max.-Head-Change                         Max.-Flux-Residual
  Residual-Control   Outer-Iter.   Inner-Iter.     Column Row Layer    Maximum-Head-Change  Column Row Layer    Maximum-Flux-Residual          L2-NORM 
          0                21           2             4    7     1      -0.4497060624E-03       4    7    1        -0.2347803812E-01      0.5750837874E-01
          0                22           2             4    7     1      -0.3805944201E-03       4    7    1        -0.1986989060E-01      0.4867038691E-01
          0                23           2             4    7     1      -0.3222012562E-03       4    7    1        -0.1682132829E-01      0.4120307347E-01
          0                24           2             4    7     1      -0.2728195976E-03       4    7    1        -0.1424323436E-01      0.3488815057E-01
          0                25           2             4    7     1      -0.2310491846E-03       4    7    1        -0.1206250469E-01      0.2954655324E-01
          0                26           2             4    7     1      -0.1956965566E-03       4    7    1        -0.1021683165E-01      0.2502566169E-01
          0                27           2             4    7     1      -0.1657667746E-03       4    7    1        -0.8654272000E-02      0.2119824345E-01
          0                28           2             4    7     1      -0.1404459879E-03       4    7    1        -0.7332336543E-02      0.1796022304E-01
          0                29           2             4    7     1      -0.1189753001E-03       4    7    1        -0.6211405193E-02      0.1521455298E-01
          0                30           1             4    7     1      -0.1008095264E-03       4    7    1        -0.5263015162E-02      0.1289151506E-01
          0                31           1             4    7     1      -0.8543690657E-04       4    7    1        -0.4460448907E-02      0.1092566581E-01

    ------------------------------------------------
       NWT REQUIRED           31 OUTER ITERATIONS 
       AND A TOTAL OF         60 INNER ITERATIONS.
    ------------------------------------------------

 NO OUTPUT CONTROL FOR STRESS PERIOD    8   TIME STEP   20
 
 SOLVING FOR HEAD 
                                                   Max.-Head-Change                         Max.-Flux-Residual
  Residual-Control   Outer-Iter.   Inner-Iter.     Column Row Layer    Maximum-Head-Change  Column Row Layer    Maximum-Flux-Residual          L2-NORM 
          0                 1           2             4    7     1      -0.1280867121E+00       4    7    1        -0.6743976502E+01      0.1442847599E+02
          0                 2           2             5    8     1      -0.7903628476E-02       5    8    1        -0.4357267572E+00      0.1092074079E+01
          0                 3           2             4    7     1      -0.1210011585E-01       4    7    1        -0.6323172956E+00      0.1506189674E+01
          0                 4           2             4    7     1      -0.8825852151E-02       5    8    1        -0.4636983244E+00      0.1132824688E+01
          0                 5           2             4    7     1      -0.7339327341E-02       4    7    1        -0.3831731695E+00      0.9381326802E+00
          0                 6           2             4    7     1      -0.6047333623E-02       5    6    1        -0.3157349044E+00      0.7733705458E+00
          0                 7           2             4    7     1      -0.5017235128E-02       4    7    1        -0.2619363547E+00      0.6415965928E+00
          0                 8           2             4    7     1      -0.4177959145E-02       4    7    1        -0.2181199377E+00      0.5342750924E+00
          0                 9           2             4    7     1      -0.3490013843E-02       4    7    1        -0.1822041739E+00      0.4463006421E+00
          0                10           2             4    7     1      -0.2922677640E-02       4    7    1        -0.1525850805E+00      0.3737501055E+00
                                                   Max.-Head-Change                         Max.-Flux-Residual
  Residual-Control   Outer-Iter.   Inner-Iter.     Column Row Layer    Maximum-Head-Change  Column Row Layer    Maximum-Flux-Residual          L2-NORM 
          0                11           2             4    7     1      -0.2452535542E-02       4    7    1        -0.1280402314E+00      0.3136286371E+00
          0                12           2             4    7     1      -0.2061470002E-02       4    7    1        -0.1076237570E+00      0.2636194323E+00
          0                13           2             4    7     1      -0.1735126472E-02       4    7    1        -0.9058624450E-01      0.2218868354E+00
          0                14           2             4    7     1      -0.1462116965E-02       4    7    1        -0.7633315759E-01      0.1869745585E+00
          0                15           2             4    7     1      -0.1233241150E-02       4    7    1        -0.6438417160E-01      0.1577060694E+00
          0                16           2             4    7     1      -0.1040997965E-02       4    7    1        -0.5434767625E-01      0.1331221370E+00
          0                17           2             4    7     1      -0.8792873853E-03       4    7    1        -0.4590520562E-01      0.1124426942E+00
          0                18           2             4    7     1      -0.7431114392E-03       4    7    1        -0.3879582905E-01      0.9502860349E-01
          0                19           2             4    7     1      -0.6283300990E-03       4    7    1        -0.3280340690E-01      0.8035044109E-01
          0                20           2             4    7     1      -0.5314664919E-03       4    7    1        -0.2774642105E-01      0.6796358665E-01
                                                   Max.-Head-Change                         Max.-Flux-Residual
  Residual-Control   Outer-Iter.   Inner-Iter.     Column Row Layer    Maximum-Head-Change  Column Row Layer    Maximum-Flux-Residual          L2-NORM 
          0                21           2             4    7     1      -0.4497081123E-03       4    7    1        -0.2347803813E-01      0.5750837870E-01
          0                22           2             4    7     1      -0.3805961543E-03       4    7    1        -0.1986989058E-01      0.4867038686E-01
          0                23           2             4    7     1      -0.3222027247E-03       4    7    1        -0.1682132828E-01      0.4120307342E-01
          0                24           2             4    7     1      -0.2728208409E-03       4    7    1        -0.1424323433E-01      0.3488815055E-01
          0                25           2             4    7     1      -0.2310502369E-03       4    7    1        -0.1206250467E-01      0.2954655321E-01
          0                26           2             4    7     1      -0.1956974484E-03       4    7    1        -0.1021683166E-01      0.2502566168E-01
          0                27           2             4    7     1      -0.1657675306E-03       4    7    1        -0.8654272014E-02      0.2119824342E-01
          0                28           2             4    7     1      -0.1404466277E-03       4    7    1        -0.7332336519E-02      0.1796022302E-01
          0                29           2             4    7     1      -0.1189758422E-03       4    7    1        -0.6211405182E-02      0.1521455296E-01
          0                30           1             4    7     1      -0.1008099858E-03       4    7    1        -0.5263015159E-02      0.1289151506E-01
          0                31           1             4    7     1      -0.8543729587E-04       4    7    1        -0.4460448899E-02      0.1092566583E-01

    ------------------------------------------------
       NWT REQUIRED           31 OUTER ITERATIONS 
       AND A TOTAL OF         60 INNER ITERATIONS.
    ------------------------------------------------

 NO OUTPUT CONTROL FOR STRESS PERIOD    8   TIME STEP   21
 
 SOLVING FOR HEAD 
                                                   Max.-Head-Change                         Max.-Flux-Residual
  Residual-Control   Outer-Iter.   Inner-Iter.     Column Row Layer    Maximum-Head-Change  Column Row Layer    Maximum-Flux-Residual          L2-NORM 
          0                 1           2             4    7     1      -0.1259651483E+00       4    7    1        -0.6633366505E+01      0.1425658687E+02
          0                 2           2             5    8     1      -0.8137923164E-02       5    8    1        -0.4484103807E+00      0.1123047982E+01
          0                 3           2             4    7     1      -0.1207895038E-01       4    7    1        -0.6312120630E+00      0.1503246008E+01
          0                 4           2             4    7     1      -0.8828014598E-02       5    8    1        -0.4638243171E+00      0.1133122269E+01
          0                 5           2             4    7     1      -0.7339148699E-02       4    7    1        -0.3831621330E+00      0.9381029659E+00
          0                 6           2             4    7     1      -0.6047382502E-02       5    6    1        -0.3157361721E+00      0.7733735153E+00
          0                 7           2             4    7     1      -0.5017255952E-02       4    7    1        -0.2619362443E+00      0.6415962954E+00
          0                 8           2             4    7     1      -0.4177978466E-02       4    7    1        -0.2181199487E+00      0.5342751217E+00
          0                 9           2             4    7     1      -0.3490029784E-02       4    7    1        -0.1822041728E+00      0.4463006388E+00
          0                10           2             4    7     1      -0.2922691009E-02       4    7    1        -0.1525850805E+00      0.3737501056E+00
                                                   Max.-Head-Change                         Max.-Flux-Residual
  Residual-Control   Outer-Iter.   Inner-Iter.     Column Row Layer    Maximum-Head-Change  Column Row Layer    Maximum-Flux-Residual          L2-NORM 
          0                11           2             4    7     1      -0.2452546759E-02       4    7    1        -0.1280402314E+00      0.3136286369E+00
          0                12           2             4    7     1      -0.2061479430E-02       4    7    1        -0.1076237570E+00      0.2636194322E+00
          0                13           2             4    7     1      -0.1735134408E-02       4    7    1        -0.9058624450E-01      0.2218868352E+00
          0                14           2             4    7     1      -0.1462123652E-02       4    7    1        -0.7633315757E-01      0.1869745584E+00
          0                15           2             4    7     1      -0.1233246790E-02       4    7    1        -0.6438417157E-01      0.1577060693E+00
          0                16           2             4    7     1      -0.1041002726E-02       4    7    1        -0.5434767623E-01      0.1331221369E+00
          0                17           2             4    7     1      -0.8792914070E-03       4    7    1        -0.4590520560E-01      0.1124426941E+00
          0                18           2             4    7     1      -0.7431148376E-03       4    7    1        -0.3879582902E-01      0.9502860355E-01
          0                19           2             4    7     1      -0.6283329724E-03       4    7    1        -0.3280340689E-01      0.8035044111E-01
          0                20           2             4    7     1      -0.5314689234E-03       4    7    1        -0.2774642106E-01      0.6796358662E-01
                                                   Max.-Head-Change                         Max.-Flux-Residual
  Residual-Control   Outer-Iter.   Inner-Iter.     Column Row Layer    Maximum-Head-Change  Column Row Layer    Maximum-Flux-Residual          L2-NORM 
          0                21           2             4    7     1      -0.4497101683E-03       4    7    1        -0.2347803809E-01      0.5750837867E-01
          0                22           2             4    7     1      -0.3805978949E-03       4    7    1        -0.1986989058E-01      0.4867038683E-01
          0                23           2             4    7     1      -0.3222041985E-03       4    7    1        -0.1682132830E-01      0.4120307341E-01
          0                24           2             4    7     1      -0.2728220886E-03       4    7    1        -0.1424323434E-01      0.3488815051E-01
          0                25           2             4    7     1      -0.2310512941E-03       4    7    1        -0.1206250467E-01      0.2954655360E-01
          0                26           2             4    7     1      -0.1956983429E-03       4    7    1        -0.1021683164E-01      0.2502566189E-01
          0                27           2             4    7     1      -0.1657682889E-03       4    7    1        -0.8654272027E-02      0.2119824349E-01
          0                28           2             4    7     1      -0.1404472702E-03       4    7    1        -0.7332336525E-02      0.1796022303E-01
          0                29           2             4    7     1      -0.1189763862E-03       4    7    1        -0.6211405177E-02      0.1521455295E-01
          0                30           1             4    7     1      -0.1008104471E-03       4    7    1        -0.5263015167E-02      0.1289151610E-01
          0                31           1             4    7     1      -0.8543768667E-04       4    7    1        -0.4460448893E-02      0.1092566637E-01

    ------------------------------------------------
       NWT REQUIRED           31 OUTER ITERATIONS 
       AND A TOTAL OF         60 INNER ITERATIONS.
    ------------------------------------------------

 NO OUTPUT CONTROL FOR STRESS PERIOD    8   TIME STEP   22
 
 SOLVING FOR HEAD 
                                                   Max.-Head-Change                         Max.-Flux-Residual
  Residual-Control   Outer-Iter.   Inner-Iter.     Column Row Layer    Maximum-Head-Change  Column Row Layer    Maximum-Flux-Residual          L2-NORM 
          0                 1           2             4    7     1      -0.1238529029E+00       4    7    1        -0.6523140943E+01      0.1409234101E+02
          0                 2           2             5    8     1      -0.8362979946E-02       5    8    1        -0.4605841920E+00      0.1153026923E+01
          0                 3           2             4    7     1      -0.1205787826E-01       4    7    1        -0.6301106541E+00      0.1500379467E+01
          0                 4           2             4    7     1      -0.8830167831E-02       5    8    1        -0.4639452682E+00      0.1133412016E+01
          0                 5           2             4    7     1      -0.7338971080E-02       4    7    1        -0.3831511344E+00      0.9380740321E+00
          0                 6           2             4    7     1      -0.6047431362E-02       5    6    1        -0.3157373911E+00      0.7733764070E+00
          0                 7           2             4    7     1      -0.5017276847E-02       4    7    1        -0.2619361342E+00      0.6415960059E+00
          0                 8           2             4    7     1      -0.4177997837E-02       4    7    1        -0.2181199596E+00      0.5342751503E+00
          0                 9           2             4    7     1      -0.3490045767E-02       4    7    1        -0.1822041716E+00      0.4463006356E+00
          0                10           2             4    7     1      -0.2922704414E-02       4    7    1        -0.1525850806E+00      0.3737501056E+00
                                                   Max.-Head-Change                         Max.-Flux-Residual
  Residual-Control   Outer-Iter.   Inner-Iter.     Column Row Layer    Maximum-Head-Change  Column Row Layer    Maximum-Flux-Residual          L2-NORM 
          0                11           2             4    7     1      -0.2452558006E-02       4    7    1        -0.1280402313E+00      0.3136286367E+00
          0                12           2             4    7     1      -0.2061488884E-02       4    7    1        -0.1076237569E+00      0.2636194320E+00
          0                13           2             4    7     1      -0.1735142364E-02       4    7    1        -0.9058624445E-01      0.2218868351E+00
          0                14           2             4    7     1      -0.1462130357E-02       4    7    1        -0.7633315754E-01      0.1869745583E+00
          0                15           2             4    7     1      -0.1233252446E-02       4    7    1        -0.6438417156E-01      0.1577060692E+00
          0                16           2             4    7     1      -0.1041007500E-02       4    7    1        -0.5434767620E-01      0.1331221368E+00
          0                17           2             4    7     1      -0.8792954394E-03       4    7    1        -0.4590520558E-01      0.1124426940E+00
          0                18           2             4    7     1      -0.7431182451E-03       4    7    1        -0.3879582900E-01      0.9502860337E-01
          0                19           2             4    7     1      -0.6283358539E-03       4    7    1        -0.3280340688E-01      0.8035044102E-01
          0                20           2             4    7     1      -0.5314713605E-03       4    7    1        -0.2774642106E-01      0.6796358659E-01
                                                   Max.-Head-Change                         Max.-Flux-Residual
  Residual-Control   Outer-Iter.   Inner-Iter.     Column Row Layer    Maximum-Head-Change  Column Row Layer    Maximum-Flux-Residual          L2-NORM 
          0                21           2             4    7     1      -0.4497122311E-03       4    7    1        -0.2347803810E-01      0.5750837865E-01
          0                22           2             4    7     1      -0.3805996406E-03       4    7    1        -0.1986989056E-01      0.4867038680E-01
          0                23           2             4    7     1      -0.3222056756E-03       4    7    1        -0.1682132826E-01      0.4120307337E-01
          0                24           2             4    7     1      -0.2728233395E-03       4    7    1        -0.1424323433E-01      0.3488815050E-01
          0                25           2             4    7     1      -0.2310523537E-03       4    7    1        -0.1206250468E-01      0.2954655320E-01
          0                26           2             4    7     1      -0.1956992408E-03       4    7    1        -0.1021683165E-01      0.2502566165E-01
          0                27           2             4    7     1      -0.1657690486E-03       4    7    1        -0.8654272005E-02      0.2119824340E-01
          0                28           2             4    7     1      -0.1404479144E-03       4    7    1        -0.7332336528E-02      0.1796022301E-01
          0                29           2             4    7     1      -0.1189769319E-03       4    7    1        -0.6211405175E-02      0.1521455295E-01
          0                30           1             4    7     1      -0.1008109089E-03       4    7    1        -0.5263015149E-02      0.1289151504E-01
          0                31           1             4    7     1      -0.8543807872E-04       4    7    1        -0.4460448911E-02      0.1092566581E-01

    ------------------------------------------------
       NWT REQUIRED           31 OUTER ITERATIONS 
       AND A TOTAL OF         60 INNER ITERATIONS.
    ------------------------------------------------

 NO OUTPUT CONTROL FOR STRESS PERIOD    8   TIME STEP   23
 
 SOLVING FOR HEAD 
                                                   Max.-Head-Change                         Max.-Flux-Residual
  Residual-Control   Outer-Iter.   Inner-Iter.     Column Row Layer    Maximum-Head-Change  Column Row Layer    Maximum-Flux-Residual          L2-NORM 
          0                 1           2             4    7     1      -0.1217518462E+00       4    7    1        -0.6413406174E+01      0.1393532044E+02
          0                 2           2             5    8     1      -0.8579322441E-02       5    8    1        -0.4722774000E+00      0.1182054916E+01
          0                 3           2             4    7     1      -0.1203691816E-01       4    7    1        -0.6290141319E+00      0.1497587136E+01
          0                 4           2             4    7     1      -0.8832309941E-02       5    8    1        -0.4640614662E+00      0.1133694221E+01
          0                 5           2             4    7     1      -0.7338794638E-02       4    7    1        -0.3831401841E+00      0.9380458498E+00
          0                 6           2             4    7     1      -0.6047480158E-02       5    6    1        -0.3157385643E+00      0.7733792237E+00
          0                 7           2             4    7     1      -0.5017297793E-02       4    7    1        -0.2619360246E+00      0.6415957240E+00
          0                 8           2             4    7     1      -0.4178017239E-02       4    7    1        -0.2181199705E+00      0.5342751783E+00
          0                 9           2             4    7     1      -0.3490061778E-02       4    7    1        -0.1822041705E+00      0.4463006327E+00
          0                10           2             4    7     1      -0.2922717842E-02       4    7    1        -0.1525850806E+00      0.3737501058E+00
                                                   Max.-Head-Change                         Max.-Flux-Residual
  Residual-Control   Outer-Iter.   Inner-Iter.     Column Row Layer    Maximum-Head-Change  Column Row Layer    Maximum-Flux-Residual          L2-NORM 
          0                11           2             4    7     1      -0.2452569272E-02       4    7    1        -0.1280402313E+00      0.3136286365E+00
          0                12           2             4    7     1      -0.2061498354E-02       4    7    1        -0.1076237569E+00      0.2636194319E+00
          0                13           2             4    7     1      -0.1735150335E-02       4    7    1        -0.9058624442E-01      0.2218868350E+00
          0                14           2             4    7     1      -0.1462137074E-02       4    7    1        -0.7633315751E-01      0.1869745582E+00
          0                15           2             4    7     1      -0.1233258111E-02       4    7    1        -0.6438417153E-01      0.1577060691E+00
          0                16           2             4    7     1      -0.1041012282E-02       4    7    1        -0.5434767618E-01      0.1331221368E+00
          0                17           2             4    7     1      -0.8792994787E-03       4    7    1        -0.4590520556E-01      0.1124426940E+00
          0                18           2             4    7     1      -0.7431216588E-03       4    7    1        -0.3879582898E-01      0.9502860333E-01
          0                19           2             4    7     1      -0.6283387404E-03       4    7    1        -0.3280340687E-01      0.8035044097E-01
          0                20           2             4    7     1      -0.5314738018E-03       4    7    1        -0.2774642104E-01      0.6796358656E-01
                                                   Max.-Head-Change                         Max.-Flux-Residual
  Residual-Control   Outer-Iter.   Inner-Iter.     Column Row Layer    Maximum-Head-Change  Column Row Layer    Maximum-Flux-Residual          L2-NORM 
          0                21           2             4    7     1      -0.4497142968E-03       4    7    1        -0.2347803809E-01      0.5750837859E-01
          0                22           2             4    7     1      -0.3806013887E-03       4    7    1        -0.1986989056E-01      0.4867038679E-01
          0                23           2             4    7     1      -0.3222071560E-03       4    7    1        -0.1682132827E-01      0.4120307336E-01
          0                24           2             4    7     1      -0.2728245931E-03       4    7    1        -0.1424323432E-01      0.3488815050E-01
          0                25           2             4    7     1      -0.2310534146E-03       4    7    1        -0.1206250465E-01      0.2954655316E-01
          0                26           2             4    7     1      -0.1957001397E-03       4    7    1        -0.1021683165E-01      0.2502566163E-01
          0                27           2             4    7     1      -0.1657698105E-03       4    7    1        -0.8654272008E-02      0.2119824339E-01
          0                28           2             4    7     1      -0.1404485592E-03       4    7    1        -0.7332336515E-02      0.1796022300E-01
          0                29           2             4    7     1      -0.1189774788E-03       4    7    1        -0.6211405188E-02      0.1521455296E-01
          0                30           1             4    7     1      -0.1008113722E-03       4    7    1        -0.5263015146E-02      0.1289151503E-01
          0                31           1             4    7     1      -0.8543847101E-04       4    7    1        -0.4460448891E-02      0.1092566577E-01

    ------------------------------------------------
       NWT REQUIRED           31 OUTER ITERATIONS 
       AND A TOTAL OF         60 INNER ITERATIONS.
    ------------------------------------------------

 NO OUTPUT CONTROL FOR STRESS PERIOD    8   TIME STEP   24
 
 SOLVING FOR HEAD 
                                                   Max.-Head-Change                         Max.-Flux-Residual
  Residual-Control   Outer-Iter.   Inner-Iter.     Column Row Layer    Maximum-Head-Change  Column Row Layer    Maximum-Flux-Residual          L2-NORM 
          0                 1           2             4    7     1      -0.1196634173E+00       4    7    1        -0.6304244575E+01      0.1378514395E+02
          0                 2           2             5    8     1      -0.8787464597E-02       5    8    1        -0.4835187208E+00      0.1210178162E+01
          0                 3           2             4    7     1      -0.1201608442E-01       4    7    1        -0.6279233202E+00      0.1494866059E+01
          0                 4           2             4    7     1      -0.8834439459E-02       5    8    1        -0.4641731947E+00      0.1133969183E+01
          0                 5           2             4    7     1      -0.7338619491E-02       4    7    1        -0.3831292905E+00      0.9380183893E+00
          0                 6           2             4    7     1      -0.6047528853E-02       5    6    1        -0.3157396941E+00      0.7733819685E+00
          0                 7           2             4    7     1      -0.5017318774E-02       4    7    1        -0.2619359157E+00      0.6415954494E+00
          0                 8           2             4    7     1      -0.4178036658E-02       4    7    1        -0.2181199813E+00      0.5342752056E+00
          0                 9           2             4    7     1      -0.3490077805E-02       4    7    1        -0.1822041693E+00      0.4463006299E+00
          0                10           2             4    7     1      -0.2922731283E-02       4    7    1        -0.1525850807E+00      0.3737501060E+00
                                                   Max.-Head-Change                         Max.-Flux-Residual
  Residual-Control   Outer-Iter.   Inner-Iter.     Column Row Layer    Maximum-Head-Change  Column Row Layer    Maximum-Flux-Residual          L2-NORM 
          0                11           2             4    7     1      -0.2452580548E-02       4    7    1        -0.1280402312E+00      0.3136286364E+00
          0                12           2             4    7     1      -0.2061507832E-02       4    7    1        -0.1076237569E+00      0.2636194319E+00
          0                13           2             4    7     1      -0.1735158313E-02       4    7    1        -0.9058624439E-01      0.2218868350E+00
          0                14           2             4    7     1      -0.1462143796E-02       4    7    1        -0.7633315749E-01      0.1869745582E+00
          0                15           2             4    7     1      -0.1233263781E-02       4    7    1        -0.6438417151E-01      0.1577060691E+00
          0                16           2             4    7     1      -0.1041017069E-02       4    7    1        -0.5434767619E-01      0.1331221367E+00
          0                17           2             4    7     1      -0.8793035219E-03       4    7    1        -0.4590520556E-01      0.1124426940E+00
          0                18           2             4    7     1      -0.7431250757E-03       4    7    1        -0.3879582897E-01      0.9502860331E-01
          0                19           2             4    7     1      -0.6283416293E-03       4    7    1        -0.3280340685E-01      0.8035044097E-01
          0                20           2             4    7     1      -0.5314762458E-03       4    7    1        -0.2774642103E-01      0.6796358654E-01
                                                   Max.-Head-Change                         Max.-Flux-Residual
  Residual-Control   Outer-Iter.   Inner-Iter.     Column Row Layer    Maximum-Head-Change  Column Row Layer    Maximum-Flux-Residual          L2-NORM 
          0                21           2             4    7     1      -0.4497163642E-03       4    7    1        -0.2347803806E-01      0.5750837859E-01
          0                22           2             4    7     1      -0.3806031391E-03       4    7    1        -0.1986989056E-01      0.4867038679E-01
          0                23           2             4    7     1      -0.3222086369E-03       4    7    1        -0.1682132825E-01      0.4120307336E-01
          0                24           2             4    7     1      -0.2728258477E-03       4    7    1        -0.1424323434E-01      0.3488815051E-01
          0                25           2             4    7     1      -0.2310544775E-03       4    7    1        -0.1206250466E-01      0.2954655316E-01
          0                26           2             4    7     1      -0.1957010391E-03       4    7    1        -0.1021683163E-01      0.2502566163E-01
          0                27           2             4    7     1      -0.1657705728E-03       4    7    1        -0.8654272016E-02      0.2119824340E-01
          0                28           2             4    7     1      -0.1404492048E-03       4    7    1        -0.7332336506E-02      0.1796022300E-01
          0                29           2             4    7     1      -0.1189780257E-03       4    7    1        -0.6211405184E-02      0.1521455296E-01
          0                30           1             4    7     1      -0.1008118358E-03       4    7    1        -0.5263015155E-02      0.1289151502E-01
          0                31           1             4    7     1      -0.8543886394E-04       4    7    1        -0.4460448905E-02      0.1092566578E-01

    ------------------------------------------------
       NWT REQUIRED           31 OUTER ITERATIONS 
       AND A TOTAL OF         60 INNER ITERATIONS.
    ------------------------------------------------

 NO OUTPUT CONTROL FOR STRESS PERIOD    8   TIME STEP   25
 
 SOLVING FOR HEAD 
                                                   Max.-Head-Change                         Max.-Flux-Residual
  Residual-Control   Outer-Iter.   Inner-Iter.     Column Row Layer    Maximum-Head-Change  Column Row Layer    Maximum-Flux-Residual          L2-NORM 
          0                 1           2             4    7     1      -0.1175893098E+00       4    7    1        -0.6195752605E+01      0.1364144615E+02
          0                 2           2             5    8     1      -0.8987857237E-02       5    8    1        -0.4943332384E+00      0.1237435616E+01
          0                 3           2             4    7     1      -0.1199539392E-01       4    7    1        -0.6268391837E+00      0.1492213624E+01
          0                 4           2             4    7     1      -0.8836554654E-02       5    8    1        -0.4642807016E+00      0.1134237165E+01
          0                 5           2             4    7     1      -0.7338445778E-02       4    7    1        -0.3831184633E+00      0.9379916243E+00
          0                 6           2             4    7     1      -0.6047577406E-02       5    6    1        -0.3157407828E+00      0.7733846438E+00
          0                 7           2             4    7     1      -0.5017339770E-02       4    7    1        -0.2619358074E+00      0.6415951819E+00
          0                 8           2             4    7     1      -0.4178056077E-02       4    7    1        -0.2181199921E+00      0.5342752323E+00
          0                 9           2             4    7     1      -0.3490093832E-02       4    7    1        -0.1822041682E+00      0.4463006272E+00
          0                10           2             4    7     1      -0.2922744725E-02       4    7    1        -0.1525850808E+00      0.3737501063E+00
                                                   Max.-Head-Change                         Max.-Flux-Residual
  Residual-Control   Outer-Iter.   Inner-Iter.     Column Row Layer    Maximum-Head-Change  Column Row Layer    Maximum-Flux-Residual          L2-NORM 
          0                11           2             4    7     1      -0.2452591825E-02       4    7    1        -0.1280402312E+00      0.3136286364E+00
          0                12           2             4    7     1      -0.2061517311E-02       4    7    1        -0.1076237568E+00      0.2636194319E+00
          0                13           2             4    7     1      -0.1735166292E-02       4    7    1        -0.9058624438E-01      0.2218868350E+00
          0                14           2             4    7     1      -0.1462150520E-02       4    7    1        -0.7633315747E-01      0.1869745582E+00
          0                15           2             4    7     1      -0.1233269452E-02       4    7    1        -0.6438417149E-01      0.1577060691E+00
          0                16           2             4    7     1      -0.1041021855E-02       4    7    1        -0.5434767616E-01      0.1331221367E+00
          0                17           2             4    7     1      -0.8793075647E-03       4    7    1        -0.4590520554E-01      0.1124426940E+00
          0                18           2             4    7     1      -0.7431284929E-03       4    7    1        -0.3879582898E-01      0.9502860332E-01
          0                19           2             4    7     1      -0.6283445187E-03       4    7    1        -0.3280340686E-01      0.8035044096E-01
          0                20           2             4    7     1      -0.5314786895E-03       4    7    1        -0.2774642103E-01      0.6796358655E-01
                                                   Max.-Head-Change                         Max.-Flux-Residual
  Residual-Control   Outer-Iter.   Inner-Iter.     Column Row Layer    Maximum-Head-Change  Column Row Layer    Maximum-Flux-Residual          L2-NORM 
          0                21           2             4    7     1      -0.4497184322E-03       4    7    1        -0.2347803807E-01      0.5750837860E-01
          0                22           2             4    7     1      -0.3806048891E-03       4    7    1        -0.1986989056E-01      0.4867038678E-01
          0                23           2             4    7     1      -0.3222101188E-03       4    7    1        -0.1682132826E-01      0.4120307353E-01
          0                24           2             4    7     1      -0.2728271017E-03       4    7    1        -0.1424323433E-01      0.3488815063E-01
          0                25           2             4    7     1      -0.2310555401E-03       4    7    1        -0.1206250468E-01      0.2954655317E-01
          0                26           2             4    7     1      -0.1957019394E-03       4    7    1        -0.1021683164E-01      0.2502566162E-01
          0                27           2             4    7     1      -0.1657713345E-03       4    7    1        -0.8654272001E-02      0.2119824339E-01
          0                28           2             4    7     1      -0.1404498513E-03       4    7    1        -0.7332336528E-02      0.1796022300E-01
          0                29           2             4    7     1      -0.1189785725E-03       4    7    1        -0.6211405168E-02      0.1521455294E-01
          0                30           1             4    7     1      -0.1008122991E-03       4    7    1        -0.5263015149E-02      0.1289151502E-01
          0                31           1             4    7     1      -0.8543925674E-04       4    7    1        -0.4460448905E-02      0.1092566579E-01

    ------------------------------------------------
       NWT REQUIRED           31 OUTER ITERATIONS 
       AND A TOTAL OF         60 INNER ITERATIONS.
    ------------------------------------------------

 NO OUTPUT CONTROL FOR STRESS PERIOD    8   TIME STEP   26
 
 SOLVING FOR HEAD 
                                                   Max.-Head-Change                         Max.-Flux-Residual
  Residual-Control   Outer-Iter.   Inner-Iter.     Column Row Layer    Maximum-Head-Change  Column Row Layer    Maximum-Flux-Residual          L2-NORM 
          0                 1           2             4    7     1      -0.1155305326E+00       4    7    1        -0.6087988914E+01      0.1350390138E+02
          0                 2           2             5    8     1      -0.9180919897E-02       5    8    1        -0.5047443299E+00      0.1263867473E+01
          0                 3           2             4    7     1      -0.1197485672E-01       4    7    1        -0.6257623091E+00      0.1489627255E+01
          0                 4           2             4    7     1      -0.8838654496E-02       5    8    1        -0.4643842178E+00      0.1134498427E+01
          0                 5           2             4    7     1      -0.7338273582E-02       4    7    1        -0.3831077082E+00      0.9379655289E+00
          0                 6           2             4    7     1      -0.6047625792E-02       5    6    1        -0.3157418325E+00      0.7733872524E+00
          0                 7           2             4    7     1      -0.5017360770E-02       4    7    1        -0.2619356998E+00      0.6415949211E+00
          0                 8           2             4    7     1      -0.4178075485E-02       4    7    1        -0.2181200028E+00      0.5342752584E+00
          0                 9           2             4    7     1      -0.3490109851E-02       4    7    1        -0.1822041671E+00      0.4463006246E+00
          0                10           2             4    7     1      -0.2922758159E-02       4    7    1        -0.1525850808E+00      0.3737501065E+00
                                                   Max.-Head-Change                         Max.-Flux-Residual
  Residual-Control   Outer-Iter.   Inner-Iter.     Column Row Layer    Maximum-Head-Change  Column Row Layer    Maximum-Flux-Residual          L2-NORM 
          0                11           2             4    7     1      -0.2452603097E-02       4    7    1        -0.1280402312E+00      0.3136286364E+00
          0                12           2             4    7     1      -0.2061526786E-02       4    7    1        -0.1076237568E+00      0.2636194319E+00
          0                13           2             4    7     1      -0.1735174266E-02       4    7    1        -0.9058624434E-01      0.2218868350E+00
          0                14           2             4    7     1      -0.1462157240E-02       4    7    1        -0.7633315747E-01      0.1869745582E+00
          0                15           2             4    7     1      -0.1233275119E-02       4    7    1        -0.6438417148E-01      0.1577060691E+00
          0                16           2             4    7     1      -0.1041026640E-02       4    7    1        -0.5434767616E-01      0.1331221368E+00
          0                17           2             4    7     1      -0.8793116061E-03       4    7    1        -0.4590520554E-01      0.1124426940E+00
          0                18           2             4    7     1      -0.7431319081E-03       4    7    1        -0.3879582896E-01      0.9502860333E-01
          0                19           2             4    7     1      -0.6283474064E-03       4    7    1        -0.3280340684E-01      0.8035044095E-01
          0                20           2             4    7     1      -0.5314811319E-03       4    7    1        -0.2774642102E-01      0.6796358654E-01
                                                   Max.-Head-Change                         Max.-Flux-Residual
  Residual-Control   Outer-Iter.   Inner-Iter.     Column Row Layer    Maximum-Head-Change  Column Row Layer    Maximum-Flux-Residual          L2-NORM 
          0                21           2             4    7     1      -0.4497204992E-03       4    7    1        -0.2347803807E-01      0.5750837861E-01
          0                22           2             4    7     1      -0.3806066381E-03       4    7    1        -0.1986989055E-01      0.4867038679E-01
          0                23           2             4    7     1      -0.3222115998E-03       4    7    1        -0.1682132826E-01      0.4120307336E-01
          0                24           2             4    7     1      -0.2728283559E-03       4    7    1        -0.1424323432E-01      0.3488815050E-01
          0                25           2             4    7     1      -0.2310566015E-03       4    7    1        -0.1206250465E-01      0.2954655315E-01
          0                26           2             4    7     1      -0.1957028389E-03       4    7    1        -0.1021683164E-01      0.2502566164E-01
          0                27           2             4    7     1      -0.1657720966E-03       4    7    1        -0.8654271995E-02      0.2119824339E-01
          0                28           2             4    7     1      -0.1404504964E-03       4    7    1        -0.7332336515E-02      0.1796022298E-01
          0                29           2             4    7     1      -0.1189791194E-03       4    7    1        -0.6211405178E-02      0.1521455294E-01
          0                30           1             4    7     1      -0.1008127627E-03       4    7    1        -0.5263015154E-02      0.1289151505E-01
          0                31           1             4    7     1      -0.8543964916E-04       4    7    1        -0.4460448895E-02      0.1092566579E-01

    ------------------------------------------------
       NWT REQUIRED           31 OUTER ITERATIONS 
       AND A TOTAL OF         60 INNER ITERATIONS.
    ------------------------------------------------

 NO OUTPUT CONTROL FOR STRESS PERIOD    8   TIME STEP   27
 
 SOLVING FOR HEAD 
                                                   Max.-Head-Change                         Max.-Flux-Residual
  Residual-Control   Outer-Iter.   Inner-Iter.     Column Row Layer    Maximum-Head-Change  Column Row Layer    Maximum-Flux-Residual          L2-NORM 
          0                 1           2             4    7     1      -0.1134885076E+00       4    7    1        -0.5981034930E+01      0.1337219413E+02
          0                 2           2             5    8     1      -0.9367085111E-02       5    8    1        -0.5147760955E+00      0.1289511755E+01
          0                 3           2             4    7     1      -0.1195448700E-01       4    7    1        -0.6246935105E+00      0.1487104466E+01
          0                 4           2             4    7     1      -0.8840737529E-02       5    8    1        -0.4644839813E+00      0.1134753222E+01
          0                 5           2             4    7     1      -0.7338103017E-02       4    7    1        -0.3830970335E+00      0.9379400781E+00
          0                 6           2             4    7     1      -0.6047673974E-02       5    6    1        -0.3157428454E+00      0.7733897968E+00
          0                 7           2             4    7     1      -0.5017381756E-02       4    7    1        -0.2619355930E+00      0.6415946669E+00
          0                 8           2             4    7     1      -0.4178094866E-02       4    7    1        -0.2181200134E+00      0.5342752840E+00
          0                 9           2             4    7     1      -0.3490125850E-02       4    7    1        -0.1822041659E+00      0.4463006221E+00
          0                10           2             4    7     1      -0.2922771576E-02       4    7    1        -0.1525850809E+00      0.3737501069E+00
                                                   Max.-Head-Change                         Max.-Flux-Residual
  Residual-Control   Outer-Iter.   Inner-Iter.     Column Row Layer    Maximum-Head-Change  Column Row Layer    Maximum-Flux-Residual          L2-NORM 
          0                11           2             4    7     1      -0.2452614354E-02       4    7    1        -0.1280402311E+00      0.3136286364E+00
          0                12           2             4    7     1      -0.2061536248E-02       4    7    1        -0.1076237568E+00      0.2636194320E+00
          0                13           2             4    7     1      -0.1735182230E-02       4    7    1        -0.9058624432E-01      0.2218868350E+00
          0                14           2             4    7     1      -0.1462163950E-02       4    7    1        -0.7633315746E-01      0.1869745583E+00
          0                15           2             4    7     1      -0.1233280781E-02       4    7    1        -0.6438417149E-01      0.1577060691E+00
          0                16           2             4    7     1      -0.1041031418E-02       4    7    1        -0.5434767614E-01      0.1331221368E+00
          0                17           2             4    7     1      -0.8793156419E-03       4    7    1        -0.4590520553E-01      0.1124426940E+00
          0                18           2             4    7     1      -0.7431353191E-03       4    7    1        -0.3879582896E-01      0.9502860334E-01
          0                19           2             4    7     1      -0.6283502905E-03       4    7    1        -0.3280340684E-01      0.8035044098E-01
          0                20           2             4    7     1      -0.5314835710E-03       4    7    1        -0.2774642100E-01      0.6796358655E-01
                                                   Max.-Head-Change                         Max.-Flux-Residual
  Residual-Control   Outer-Iter.   Inner-Iter.     Column Row Layer    Maximum-Head-Change  Column Row Layer    Maximum-Flux-Residual          L2-NORM 
          0                21           2             4    7     1      -0.4497225637E-03       4    7    1        -0.2347803808E-01      0.5750837863E-01
          0                22           2             4    7     1      -0.3806083850E-03       4    7    1        -0.1986989055E-01      0.4867038680E-01
          0                23           2             4    7     1      -0.3222130787E-03       4    7    1        -0.1682132825E-01      0.4120307338E-01
          0                24           2             4    7     1      -0.2728296080E-03       4    7    1        -0.1424323432E-01      0.3488815050E-01
          0                25           2             4    7     1      -0.2310576623E-03       4    7    1        -0.1206250466E-01      0.2954655316E-01
          0                26           2             4    7     1      -0.1957037370E-03       4    7    1        -0.1021683163E-01      0.2502566165E-01
          0                27           2             4    7     1      -0.1657728573E-03       4    7    1        -0.8654271993E-02      0.2119824341E-01
          0                28           2             4    7     1      -0.1404511412E-03       4    7    1        -0.7332336520E-02      0.1796022300E-01
          0                29           2             4    7     1      -0.1189796656E-03       4    7    1        -0.6211405175E-02      0.1521455295E-01
          0                30           1             4    7     1      -0.1008132252E-03       4    7    1        -0.5263015144E-02      0.1289151503E-01
          0                31           1             4    7     1      -0.8544004171E-04       4    7    1        -0.4460448906E-02      0.1092566580E-01

    ------------------------------------------------
       NWT REQUIRED           31 OUTER ITERATIONS 
       AND A TOTAL OF         60 INNER ITERATIONS.
    ------------------------------------------------

 NO OUTPUT CONTROL FOR STRESS PERIOD    8   TIME STEP   28
 
 SOLVING FOR HEAD 
                                                   Max.-Head-Change                         Max.-Flux-Residual
  Residual-Control   Outer-Iter.   Inner-Iter.     Column Row Layer    Maximum-Head-Change  Column Row Layer    Maximum-Flux-Residual          L2-NORM 
          0                 1           2             4    7     1      -0.1114641288E+00       4    7    1        -0.5874942520E+01      0.1324603805E+02
          0                 2           2             5    8     1      -0.9546699952E-02       5    8    1        -0.5244478354E+00      0.1314402487E+01
          0                 3           2             4    7     1      -0.1193429366E-01       4    7    1        -0.6236333071E+00      0.1484642991E+01
          0                 4           2             4    7     1      -0.8842802840E-02       5    8    1        -0.4645801830E+00      0.1135001780E+01
          0                 5           2             4    7     1      -0.7337934156E-02       4    7    1        -0.3830864444E+00      0.9379152491E+00
          0                 6           2             4    7     1      -0.6047721930E-02       5    6    1        -0.3157438233E+00      0.7733922790E+00
          0                 7           2             4    7     1      -0.5017402718E-02       4    7    1        -0.2619354871E+00      0.6415944189E+00
          0                 8           2             4    7     1      -0.4178114210E-02       4    7    1        -0.2181200240E+00      0.5342753090E+00
          0                 9           2             4    7     1      -0.3490141819E-02       4    7    1        -0.1822041649E+00      0.4463006198E+00
          0                10           2             4    7     1      -0.2922784969E-02       4    7    1        -0.1525850810E+00      0.3737501073E+00
                                                   Max.-Head-Change                         Max.-Flux-Residual
  Residual-Control   Outer-Iter.   Inner-Iter.     Column Row Layer    Maximum-Head-Change  Column Row Layer    Maximum-Flux-Residual          L2-NORM 
          0                11           2             4    7     1      -0.2452625590E-02       4    7    1        -0.1280402311E+00      0.3136286365E+00
          0                12           2             4    7     1      -0.2061545693E-02       4    7    1        -0.1076237568E+00      0.2636194320E+00
          0                13           2             4    7     1      -0.1735190181E-02       4    7    1        -0.9058624432E-01      0.2218868351E+00
          0                14           2             4    7     1      -0.1462170649E-02       4    7    1        -0.7633315742E-01      0.1869745583E+00
          0                15           2             4    7     1      -0.1233286431E-02       4    7    1        -0.6438417146E-01      0.1577060692E+00
          0                16           2             4    7     1      -0.1041036187E-02       4    7    1        -0.5434767614E-01      0.1331221368E+00
          0                17           2             4    7     1      -0.8793196705E-03       4    7    1        -0.4590520553E-01      0.1124426940E+00
          0                18           2             4    7     1      -0.7431387240E-03       4    7    1        -0.3879582896E-01      0.9502860336E-01
          0                19           2             4    7     1      -0.6283531692E-03       4    7    1        -0.3280340683E-01      0.8035044100E-01
          0                20           2             4    7     1      -0.5314860065E-03       4    7    1        -0.2774642101E-01      0.6796358658E-01
                                                   Max.-Head-Change                         Max.-Flux-Residual
  Residual-Control   Outer-Iter.   Inner-Iter.     Column Row Layer    Maximum-Head-Change  Column Row Layer    Maximum-Flux-Residual          L2-NORM 
          0                21           2             4    7     1      -0.4497246236E-03       4    7    1        -0.2347803805E-01      0.5750837864E-01
          0                22           2             4    7     1      -0.3806101288E-03       4    7    1        -0.1986989053E-01      0.4867038681E-01
          0                23           2             4    7     1      -0.3222145548E-03       4    7    1        -0.1682132825E-01      0.4120307338E-01
          0                24           2             4    7     1      -0.2728308580E-03       4    7    1        -0.1424323432E-01      0.3488815051E-01
          0                25           2             4    7     1      -0.2310587211E-03       4    7    1        -0.1206250466E-01      0.2954655319E-01
          0                26           2             4    7     1      -0.1957046332E-03       4    7    1        -0.1021683162E-01      0.2502566164E-01
          0                27           2             4    7     1      -0.1657736173E-03       4    7    1        -0.8654272016E-02      0.2119824343E-01
          0                28           2             4    7     1      -0.1404517847E-03       4    7    1        -0.7332336515E-02      0.1796022300E-01
          0                29           2             4    7     1      -0.1189802105E-03       4    7    1        -0.6211405165E-02      0.1521455295E-01
          0                30           1             4    7     1      -0.1008136874E-03       4    7    1        -0.5263015154E-02      0.1289151503E-01
          0                31           1             4    7     1      -0.8544043289E-04       4    7    1        -0.4460448889E-02      0.1092566579E-01

    ------------------------------------------------
       NWT REQUIRED           31 OUTER ITERATIONS 
       AND A TOTAL OF         60 INNER ITERATIONS.
    ------------------------------------------------

 NO OUTPUT CONTROL FOR STRESS PERIOD    8   TIME STEP   29
 
 SOLVING FOR HEAD 
                                                   Max.-Head-Change                         Max.-Flux-Residual
  Residual-Control   Outer-Iter.   Inner-Iter.     Column Row Layer    Maximum-Head-Change  Column Row Layer    Maximum-Flux-Residual          L2-NORM 
          0                 1           2             4    7     1      -0.1094584468E+00       4    7    1        -0.5769772567E+01      0.1312515721E+02
          0                 2           2             5    8     1      -0.9720129737E-02       5    8    1        -0.5337798922E+00      0.1338572151E+01
          0                 3           2             4    7     1      -0.1191428718E-01       4    7    1        -0.6225823073E+00      0.1482240654E+01
          0                 4           2             4    7     1      -0.8844849354E-02       5    8    1        -0.4646730238E+00      0.1135244322E+01
          0                 5           2             4    7     1      -0.7337767083E-02       4    7    1        -0.3830759468E+00      0.9378910197E+00
          0                 6           2             4    7     1      -0.6047769631E-02       5    6    1        -0.3157447680E+00      0.7733947015E+00
          0                 7           2             4    7     1      -0.5017423644E-02       4    7    1        -0.2619353821E+00      0.6415941771E+00
          0                 8           2             4    7     1      -0.4178133506E-02       4    7    1        -0.2181200344E+00      0.5342753335E+00
          0                 9           2             4    7     1      -0.3490157751E-02       4    7    1        -0.1822041638E+00      0.4463006176E+00
          0                10           2             4    7     1      -0.2922798329E-02       4    7    1        -0.1525850811E+00      0.3737501077E+00
                                                   Max.-Head-Change                         Max.-Flux-Residual
  Residual-Control   Outer-Iter.   Inner-Iter.     Column Row Layer    Maximum-Head-Change  Column Row Layer    Maximum-Flux-Residual          L2-NORM 
          0                11           2             4    7     1      -0.2452636799E-02       4    7    1        -0.1280402311E+00      0.3136286366E+00
          0                12           2             4    7     1      -0.2061555115E-02       4    7    1        -0.1076237568E+00      0.2636194322E+00
          0                13           2             4    7     1      -0.1735198111E-02       4    7    1        -0.9058624431E-01      0.2218868352E+00
          0                14           2             4    7     1      -0.1462177332E-02       4    7    1        -0.7633315742E-01      0.1869745584E+00
          0                15           2             4    7     1      -0.1233292067E-02       4    7    1        -0.6438417146E-01      0.1577060693E+00
          0                16           2             4    7     1      -0.1041040945E-02       4    7    1        -0.5434767611E-01      0.1331221369E+00
          0                17           2             4    7     1      -0.8793236895E-03       4    7    1        -0.4590520551E-01      0.1124426941E+00
          0                18           2             4    7     1      -0.7431421197E-03       4    7    1        -0.3879582893E-01      0.9502860341E-01
          0                19           2             4    7     1      -0.6283560414E-03       4    7    1        -0.3280340684E-01      0.8035044105E-01
          0                20           2             4    7     1      -0.5314884350E-03       4    7    1        -0.2774642099E-01      0.6796358660E-01
                                                   Max.-Head-Change                         Max.-Flux-Residual
  Residual-Control   Outer-Iter.   Inner-Iter.     Column Row Layer    Maximum-Head-Change  Column Row Layer    Maximum-Flux-Residual          L2-NORM 
          0                21           2             4    7     1      -0.4497266790E-03       4    7    1        -0.2347803806E-01      0.5750837865E-01
          0                22           2             4    7     1      -0.3806118687E-03       4    7    1        -0.1986989055E-01      0.4867038685E-01
          0                23           2             4    7     1      -0.3222160273E-03       4    7    1        -0.1682132824E-01      0.4120307341E-01
          0                24           2             4    7     1      -0.2728321047E-03       4    7    1        -0.1424323432E-01      0.3488815054E-01
          0                25           2             4    7     1      -0.2310597773E-03       4    7    1        -0.1206250467E-01      0.2954655320E-01
          0                26           2             4    7     1      -0.1957055278E-03       4    7    1        -0.1021683162E-01      0.2502566165E-01
          0                27           2             4    7     1      -0.1657743745E-03       4    7    1        -0.8654271997E-02      0.2119824341E-01
          0                28           2             4    7     1      -0.1404524265E-03       4    7    1        -0.7332336518E-02      0.1796022301E-01
          0                29           2             4    7     1      -0.1189807545E-03       4    7    1        -0.6211405177E-02      0.1521455295E-01
          0                30           1             4    7     1      -0.1008141479E-03       4    7    1        -0.5263015154E-02      0.1289151504E-01
          0                31           1             4    7     1      -0.8544082381E-04       4    7    1        -0.4460448900E-02      0.1092566579E-01

    ------------------------------------------------
       NWT REQUIRED           31 OUTER ITERATIONS 
       AND A TOTAL OF         60 INNER ITERATIONS.
    ------------------------------------------------

 NO OUTPUT CONTROL FOR STRESS PERIOD    8   TIME STEP   30



 STREAM LISTING     PERIOD      8   STEP       30

 LAYER ROW COL. STREAM  RCH.  FLOW INTO     FLOW TO   FLOW OUT OF   OVRLND.     DIRECT     STREAM       STREAM     STREAM     STREAM   STREAMBED  STREAMBED
                SEG.NO.  NO.  STRM. RCH.    AQUIFER    STRM. RCH.    RUNOFF     PRECIP       ET          HEAD       DEPTH      WIDTH   CONDCTNC.   GRADIENT

   1    1    1     1     1    7.4999E+01  4.2231E-01   7.4577E+01  0.000E+00  0.000E+00  0.000E+00  1.09475E+03  1.698E+00  1.998E+01  8.990E-02  1.566E+00
   1    2    2     1     2    7.4577E+01  6.5422E-01   7.3923E+01  0.000E+00  0.000E+00  0.000E+00  1.08975E+03  1.692E+00  1.992E+01  1.394E-01  1.564E+00
   1    3    3     1     3    7.3923E+01  5.5813E-01   7.3365E+01  0.000E+00  0.000E+00  0.000E+00  1.08410E+03  1.685E+00  1.985E+01  1.191E-01  1.562E+00
   1    3    4     1     4    7.3365E+01  5.1411E-01   7.2851E+01  0.000E+00  0.000E+00  0.000E+00  1.07909E+03  1.679E+00  1.980E+01  1.099E-01  1.560E+00
   1    4    5     2     1    7.0851E+01  4.0967E-01   7.0441E+01  0.000E+00  0.000E+00  0.000E+00  1.07419E+03  2.252E+00  1.200E+01  7.800E-02  1.751E+00
   1    5    6     2     2    7.0441E+01  3.1471E-01   7.0126E+01  0.000E+00  0.000E+00  0.000E+00  1.06875E+03  2.245E+00  1.200E+01  6.000E-02  1.748E+00
   1    6    6     2     3    7.0126E+01  3.1435E-01   6.9812E+01  0.000E+00  0.000E+00  0.000E+00  1.06403E+03  2.239E+00  1.200E+01  6.000E-02  1.746E+00
   1    7    6     2     4    6.9812E+01  3.1399E-01   6.9498E+01  0.000E+00  0.000E+00  0.000E+00  1.05931E+03  2.233E+00  1.200E+01  6.000E-02  1.744E+00
   1    8    6     2     5    6.9498E+01  3.1363E-01   6.9184E+01  0.000E+00  0.000E+00  0.000E+00  1.05459E+03  2.227E+00  1.200E+01  6.000E-02  1.742E+00
   1    3    5     3     1    2.0000E+00  2.8252E-01   1.7175E+00  0.000E+00  0.000E+00  0.000E+00  1.07555E+03  1.909E+00  9.636E+00  7.227E-02  1.955E+00
   1    3    6     3     2    1.7175E+00  2.4905E-01   1.4684E+00  0.000E+00  0.000E+00  0.000E+00  1.07264E+03  1.727E+00  8.909E+00  6.682E-02  1.864E+00
   1    3    7     3     3    1.4684E+00  1.9718E-01   1.2712E+00  0.000E+00  0.000E+00  0.000E+00  1.06987E+03  1.555E+00  8.218E+00  5.547E-02  1.777E+00
   1    4    8     3     4    1.2712E+00  2.2567E-01   1.0456E+00  0.000E+00  0.000E+00  0.000E+00  1.06682E+03  1.364E+00  7.455E+00  6.709E-02  1.682E+00
   1    5    8     3     5    1.0456E+00  1.5790E-01   8.8768E-01  0.000E+00  0.000E+00  0.000E+00  1.06362E+03  1.164E+00  6.655E+00  4.991E-02  1.582E+00
   1    6    8     3     6    8.8768E-01  5.5980E-02   8.3170E-01  0.000E+00  0.000E+00  0.000E+00  1.06158E+03  1.036E+00  6.145E+00  1.844E-02  1.518E+00
   1    5   10     4     1    1.0000E+01  9.0919E-02   9.9091E+00  0.000E+00  0.000E+00  0.000E+00  1.07836E+03  6.368E-01  1.000E+01  2.500E-02  1.212E+00
   1    5    9     4     2    9.9091E+00  1.8158E-01   9.7275E+00  0.000E+00  0.000E+00  0.000E+00  1.07154E+03  6.315E-01  1.000E+01  5.000E-02  1.211E+00
   1    6    8     4     3    9.7275E+00  1.2689E-01   9.6006E+00  0.000E+00  0.000E+00  0.000E+00  1.06381E+03  6.256E-01  1.000E+01  3.500E-02  1.209E+00
   1    6    8     5     1    1.0432E+01  2.2686E-01   1.0205E+01  0.000E+00  0.000E+00  0.000E+00  1.05868E+03  6.790E-01  1.542E+01  6.166E-02  1.226E+00
   1    7    7     5     2    1.0205E+01  2.7894E-01   9.9265E+00  0.000E+00  0.000E+00  0.000E+00  1.05417E+03  6.732E-01  1.519E+01  7.594E-02  1.224E+00
   1    8    7     5     3    9.9265E+00  1.9221E-01   9.7343E+00  0.000E+00  0.000E+00  0.000E+00  1.04992E+03  6.676E-01  1.497E+01  5.241E-02  1.223E+00
   1    8    6     5     4    9.7343E+00  1.3577E-01   9.5985E+00  0.000E+00  0.000E+00  0.000E+00  1.04691E+03  6.637E-01  1.482E+01  3.706E-02  1.221E+00
   1    9    6     6     1    7.8783E+01  3.2569E-01   7.8457E+01  0.000E+00  0.000E+00  0.000E+00  1.04516E+03  2.428E+00  1.200E+01  6.000E-02  1.809E+00
   1   10    7     6     2    7.8457E+01  3.2533E-01   7.8132E+01  0.000E+00  0.000E+00  0.000E+00  1.04060E+03  2.422E+00  1.200E+01  6.000E-02  1.807E+00
   1   11    7     6     3    7.8132E+01  3.2497E-01   7.7807E+01  0.000E+00  0.000E+00  0.000E+00  1.03605E+03  2.416E+00  1.200E+01  6.000E-02  1.805E+00
   1   12    7     6     4    7.7807E+01  3.2461E-01   7.7482E+01  0.000E+00  0.000E+00  0.000E+00  1.03150E+03  2.410E+00  1.200E+01  6.000E-02  1.803E+00
   1   13    7     6     5    7.7482E+01  2.5721E-02   7.7457E+01  0.000E+00  0.000E+00  0.000E+00  1.02832E+03  2.407E+00  1.200E+01  2.400E-02  3.572E-01
   1   14    9     7     1    1.5000E+02  1.3316E+00   1.4867E+02  0.000E+00  0.000E+00  0.000E+00  1.03987E+03  2.288E+00  5.529E+01  5.593E-01  7.936E-01
   1   13    8     7     2    1.4867E+02  1.7983E+00   1.4687E+02  0.000E+00  0.000E+00  0.000E+00  1.03478E+03  2.279E+00  5.526E+01  6.148E-01  9.751E-01
   1   13    7     7     3    1.4687E+02  1.3661E+00   1.4550E+02  0.000E+00  0.000E+00  0.000E+00  1.02969E+03  2.271E+00  5.522E+01  5.585E-01  8.154E-01
   1   13    6     8     1    2.2296E+02  1.0158E+00   2.2194E+02  0.000E+00  0.000E+00  0.000E+00  1.02514E+03  3.265E+00  4.735E+01  4.825E-01  7.018E-01
   1   13    5     8     2    2.2194E+02  2.0177E-01   2.2174E+02  0.000E+00  0.000E+00  0.000E+00  1.01889E+03  3.262E+00  4.730E+01  4.820E-01  1.395E-01
   1   13    4     8     3    2.2174E+02 -1.9143E+00   2.2366E+02  0.000E+00  0.000E+00  0.000E+00  1.01264E+03  3.267E+00  4.737E+01  4.827E+00 -1.322E-01
   1   13    3     8     4    2.2366E+02 -3.0672E+00   2.2672E+02  0.000E+00  0.000E+00  0.000E+00  1.00641E+03  3.280E+00  4.757E+01  4.847E+00 -2.109E-01
   1   13    2     8     5    2.2672E+02 -2.5089E+00   2.2923E+02  0.000E+00  0.000E+00  0.000E+00  1.00017E+03  3.296E+00  4.779E+01  4.870E+00 -1.717E-01
   1   13    1     8     6    2.2923E+02 -1.9837E+00   2.3122E+02  0.000E+00  0.000E+00  0.000E+00  9.95183E+02  3.308E+00  4.796E+01  2.933E+00 -2.255E-01





UNSATURATED ZONE PACKAGE VOLUMETRIC BUDGET FOR  TIME STEP    30 STRESS PERIOD    8
  ------------------------------------------------------------------------------



     CUMULATIVE VOLUMES      L**3       RATES FOR THIS TIME STEP      L**3/T
     ------------------                 ------------------------

           IN:                                      IN:
           ---                                      ---
        INFILTRATION =   333874176.0379          INFILTRATION =          88.1754

          OUT:                                     OUT:
          ----                                     ----
              UZF ET =   261782112.8247                UZF ET =          60.7922
        UZF RECHARGE =       73224.0000          UZF RECHARGE =       0.0000E+00

            IN - OUT =    72018839.2132              IN - OUT =          27.3832

          STORAGE:                                 STORAGE:
          --------                                 --------
      STORAGE CHANGE =    72018832.1148        STORAGE CHANGE =          27.3832

 PERCENT DISCREPANCY IS DIFFERENCE BETWEEN IN-OUT MINUS CHANGE IN STORAGE
 DIVIDED BY THE AVERAGE OF IN AND OUT TIMES 100

 PERCENT DISCREPANCY =           0.00     PERCENT DISCREPANCY =           0.00






1
  VOLUMETRIC BUDGET FOR AGRICULTURAL FIELDS AT  END OF TIME STEP   30, STRESS PERIOD   8
  ------------------------------------------------------------------------------

     CUMULATIVE VOLUMES      L**3       RATES FOR THIS TIME STEP      L**3/T
     ------------------                 ------------------------

           IN:                                      IN:
           ---                                      ---
               AG WELLS  =   318198528.0000                 AG WELLS  =          87.3279
      DIVERSION SEGMENTS =           0.0000        DIVERSION SEGMENTS =           0.0000
           GW IRRIGATION =           0.0000             GW IRRIGATION =           0.0000
           SW IRRIGATION =           0.0000             SW IRRIGATION =           0.0000
        SYSTEM LOSSES GW =           0.0000          SYSTEM LOSSES GW =           0.0000
        SYSTEM LOSSES SW =           0.0000          SYSTEM LOSSES SW =           0.0000

                TOTAL IN =   318198528.0000                  TOTAL IN =          87.3279

          OUT:                                     OUT:
          ----                                     ----
               AG WELLS  =           0.0000                 AG WELLS  =           0.0000
      DIVERSION SEGMENTS =           0.0000        DIVERSION SEGMENTS =           0.0000
           GW IRRIGATION =   318198528.0000             GW IRRIGATION =          87.3279
           SW IRRIGATION =           0.0000             SW IRRIGATION =           0.0000
        SYSTEM LOSSES GW =           0.0000          SYSTEM LOSSES GW =           0.0000
        SYSTEM LOSSES SW =           0.0000          SYSTEM LOSSES SW =           0.0000

               TOTAL OUT =   318198528.0000                 TOTAL OUT =          87.3279

                IN - OUT =           0.0000                  IN - OUT =           0.0000

     PERCENT DISCREPANCY =           0.00         PERCENT DISCREPANCY =           0.00



1
  VOLUMETRIC BUDGET FOR ENTIRE MODEL AT END OF TIME STEP   30, STRESS PERIOD   8
  ------------------------------------------------------------------------------

     CUMULATIVE VOLUMES      L**3       RATES FOR THIS TIME STEP      L**3/T
     ------------------                 ------------------------

           IN:                                      IN:
           ---                                      ---
             STORAGE     =   322331008.0000               STORAGE     =          86.2480
       CONSTANT HEAD     =           0.0000         CONSTANT HEAD     =           0.0000
     HEAD DEP BOUNDS     =     5279910.5000       HEAD DEP BOUNDS     =           0.2855
      STREAM LEAKAGE     =   237080192.0000        STREAM LEAKAGE     =          13.2565
        UZF RECHARGE     =       73223.9531          UZF RECHARGE     =           0.0000
               GW ET     =           0.0000                 GW ET     =           0.0000
     SURFACE LEAKAGE     =           0.0000       SURFACE LEAKAGE     =           0.0000
           AG WELLS      =           0.0000             AG WELLS      =           0.0000

                TOTAL IN =   564764288.0000                  TOTAL IN =          99.7900

          OUT:                                     OUT:
          ----                                     ----
             STORAGE     =    45212304.0000               STORAGE     =           1.1550
       CONSTANT HEAD     =           0.0000         CONSTANT HEAD     =           0.0000
     HEAD DEP BOUNDS     =     5460585.5000       HEAD DEP BOUNDS     =           0.2986
      STREAM LEAKAGE     =   185553888.0000        STREAM LEAKAGE     =           9.4741
        UZF RECHARGE     =           0.0000          UZF RECHARGE     =           0.0000
               GW ET     =    10335111.0000                 GW ET     =           1.5317
     SURFACE LEAKAGE     =           0.0000       SURFACE LEAKAGE     =           0.0000
           AG WELLS      =   318198528.0000             AG WELLS      =          87.3279

               TOTAL OUT =   564760448.0000                 TOTAL OUT =          99.7873

                IN - OUT =        3840.0000                  IN - OUT =       2.6550E-03

     PERCENT DISCREPANCY =           0.00         PERCENT DISCREPANCY =           0.00






         TIME SUMMARY AT END OF TIME STEP   30 IN STRESS PERIOD    8
                    SECONDS     MINUTES      HOURS       DAYS        YEARS
                    -----------------------------------------------------------
   TIME STEP LENGTH  87667.      1461.1      24.352      1.0147     2.77799E-03
 STRESS PERIOD TIME 2.63000E+06  43833.      730.56      30.440     8.33397E-02
         TOTAL TIME 1.84964E+07 3.08274E+05  5137.9      214.08     0.58612    
1
1
                            STRESS PERIOD NO.    9, LENGTH =   2630000.    
                            -----------------------------------------------

                              NUMBER OF TIME STEPS =    30

                               MULTIPLIER FOR DELT =     1.000

                            INITIAL TIME STEP SIZE =   87666.66    

 REUSING NON-PARAMETER GHB CELLS FROM LAST STRESS PERIOD

      2 GHB CELLS

 REUSING STREAM SEGMENT DATA FROM LAST STRESS PERIOD



            AREAL INFILTRATION RATE
 READING ON UNIT   19 WITH FORMAT: (FREE)              

            1           2           3           4           5           6           7           8           9          10
 ........................................................................................................................
   1   1.0000E-10  2.0000E-10   0.000       0.000       0.000       0.000       0.000       0.000       0.000       0.000    
   2   2.0000E-10  1.0000E-10  2.0000E-10   0.000       0.000      8.0000E-10  8.0000E-10  5.0000E-10   0.000       0.000    
   3    0.000      5.0000E-10  1.0000E-10  1.0000E-10  8.0000E-10  8.0000E-10  5.0000E-10  5.0000E-10   0.000       0.000    
   4   8.0000E-10  5.0000E-10  1.0000E-10  1.0000E-10  1.0000E-10  1.0000E-10  1.0000E-10  1.0000E-10  2.0000E-10   0.000    
   5   8.0000E-10  5.0000E-10  1.0000E-10  1.0000E-10  1.0000E-10  1.0000E-10  1.0000E-10  1.0000E-10  1.0000E-10  1.0000E-10
   6   8.0000E-10  5.0000E-10  5.0000E-10  2.0000E-10  2.0000E-10  1.0000E-10  1.0000E-10  1.0000E-10  1.0000E-10  5.0000E-10
   7   8.0000E-10  5.0000E-10  5.0000E-10  2.0000E-10  2.0000E-10  1.0000E-10  1.0000E-10  2.0000E-10  2.0000E-10   0.000    
   8    0.000      5.0000E-10  5.0000E-10  2.0000E-10  2.0000E-10  1.0000E-10  1.0000E-10  2.0000E-10  5.0000E-10   0.000    
   9    0.000      5.0000E-10  5.0000E-10  2.0000E-10  2.0000E-10  1.0000E-10  1.0000E-10  2.0000E-10  5.0000E-10   0.000    
  10    0.000      5.0000E-10  5.0000E-10  2.0000E-10  2.0000E-10  1.0000E-10  1.0000E-10  2.0000E-10  5.0000E-10  8.0000E-10
  11    0.000      1.0000E-10  1.0000E-10  1.0000E-10  1.0000E-10  1.0000E-10  1.0000E-10  2.0000E-10  5.0000E-10   0.000    
  12   1.0000E-10  1.0000E-10  1.0000E-10  1.0000E-10  1.0000E-10  1.0000E-10  1.0000E-10  1.0000E-10  2.0000E-10   0.000    
  13   1.0000E-10  1.0000E-10  2.0000E-10  2.0000E-10  2.0000E-10  2.0000E-10  2.0000E-10  1.0000E-10  1.0000E-10   0.000    
  14    0.000      2.0000E-10  5.0000E-10  5.0000E-10  5.0000E-10  5.0000E-10  5.0000E-10  2.0000E-10  1.0000E-10   0.000    
  15    0.000       0.000      8.0000E-10  8.0000E-10  8.0000E-10  8.0000E-10   0.000       0.000       0.000       0.000    

                  ET RATE =  3.250000E-07

 USING ET EXTINCTION DEPTH FROM PREVIOUS STRESS PERIOD. CURRENT PERIOD IS:       9

 USING EXTINCTION WATER CONTENT FROM PREVIOUS STRESS PERIOD. CURRENT PERIOD IS:       9

 USING AIR ENTRY PRESSURE FROM PREVIOUS STRESS PERIOD. CURRENT PERIOD IS:       9

 USING ROOT PRESSURE HEAD FROM PREVIOUS STRESS PERIOD. CURRENT PERIOD IS:       9

 USING ROOT ACTIVITY FROM PREVIOUS STRESS PERIOD. CURRENT PERIOD IS:       9

 PROCESSING AG STRESS PERIOD DATA

 READING AG STRESS PERIOD DATA

 READING IRRIGATION WELL

 END PROCESSING AG STRESS PERIOD DATA OPTIONS
 
 SOLVING FOR HEAD 
                                                   Max.-Head-Change                         Max.-Flux-Residual
  Residual-Control   Outer-Iter.   Inner-Iter.     Column Row Layer    Maximum-Head-Change  Column Row Layer    Maximum-Flux-Residual          L2-NORM 
          0                 1           2             4    7     1      -0.7155657923E-01       4    7    1        -0.3790579532E+01      0.1020097707E+02
          0                 2           2             4    7     1       0.6960346123E-02       4    7    1         0.3790470191E+00      0.1020050605E+01
          0                 3           2             4    7     1      -0.4739753103E-03       4    7    1        -0.2653340625E-01      0.7140062178E-01
          0                 4           1             4    7     1       0.1885991372E-04       4    7    1         0.1085217359E-02      0.2920070782E-02

    ------------------------------------------------
       NWT REQUIRED            4 OUTER ITERATIONS 
       AND A TOTAL OF          7 INNER ITERATIONS.
    ------------------------------------------------

 NO OUTPUT CONTROL FOR STRESS PERIOD    9   TIME STEP    1
 
 SOLVING FOR HEAD 
                                                   Max.-Head-Change                         Max.-Flux-Residual
  Residual-Control   Outer-Iter.   Inner-Iter.     Column Row Layer    Maximum-Head-Change  Column Row Layer    Maximum-Flux-Residual          L2-NORM 
          0                 1           2             4    7     1      -0.7023220181E-01       4    7    1        -0.3717915212E+01      0.1007721264E+02
          0                 2           2             4    7     1       0.6831507676E-02       4    7    1         0.3717811925E+00      0.1007657080E+01
          0                 3           2             4    7     1      -0.4652018030E-03       4    7    1        -0.2602479244E-01      0.7053354486E-01
          0                 4           1             4    7     1       0.1851080803E-04       4    7    1         0.1064415052E-02      0.2884666322E-02

    ------------------------------------------------
       NWT REQUIRED            4 OUTER ITERATIONS 
       AND A TOTAL OF          7 INNER ITERATIONS.
    ------------------------------------------------

 NO OUTPUT CONTROL FOR STRESS PERIOD    9   TIME STEP    2
 
 SOLVING FOR HEAD 
                                                   Max.-Head-Change                         Max.-Flux-Residual
  Residual-Control   Outer-Iter.   Inner-Iter.     Column Row Layer    Maximum-Head-Change  Column Row Layer    Maximum-Flux-Residual          L2-NORM 
          0                 1           2             4    7     1      -0.6897822804E-01       4    7    1        -0.3649101298E+01      0.9962686320E+01
          0                 2           2             4    7     1       0.6709559774E-02       4    7    1         0.3649003687E+00      0.9962361591E+00
          0                 3           2             4    7     1      -0.4568975240E-03       4    7    1        -0.2554312918E-01      0.6973473511E-01
          0                 4           1             4    7     1       0.1818037328E-04       4    7    1         0.1044715022E-02      0.2852017793E-02

    ------------------------------------------------
       NWT REQUIRED            4 OUTER ITERATIONS 
       AND A TOTAL OF          7 INNER ITERATIONS.
    ------------------------------------------------

 NO OUTPUT CONTROL FOR STRESS PERIOD    9   TIME STEP    3
 
 SOLVING FOR HEAD 
                                                   Max.-Head-Change                         Max.-Flux-Residual
  Residual-Control   Outer-Iter.   Inner-Iter.     Column Row Layer    Maximum-Head-Change  Column Row Layer    Maximum-Flux-Residual          L2-NORM 
          0                 1           2             4    7     1      -0.6779074002E-01       4    7    1        -0.3583942848E+01      0.9857839941E+01
          0                 2           2             4    7     1       0.6594057100E-02       4    7    1         0.3583850550E+00      0.9857572061E+00
          0                 3           2             4    7     1      -0.4490321466E-03       4    7    1        -0.2508705201E-01      0.6900161807E-01
          0                 4           1             4    7     1       0.1786740270E-04       4    7    1         0.1026061445E-02      0.2822060318E-02

    ------------------------------------------------
       NWT REQUIRED            4 OUTER ITERATIONS 
       AND A TOTAL OF          7 INNER ITERATIONS.
    ------------------------------------------------

 NO OUTPUT CONTROL FOR STRESS PERIOD    9   TIME STEP    4
 
 SOLVING FOR HEAD 
                                                   Max.-Head-Change                         Max.-Flux-Residual
  Residual-Control   Outer-Iter.   Inner-Iter.     Column Row Layer    Maximum-Head-Change  Column Row Layer    Maximum-Flux-Residual          L2-NORM 
          0                 1           2             4    7     1      -0.6666621925E-01       4    7    1        -0.3522247402E+01      0.9761422388E+01
          0                 2           2             4    7     1       0.6484678948E-02       4    7    1         0.3522160079E+00      0.9761304008E+00
          0                 3           2             4    7     1      -0.4415838294E-03       4    7    1        -0.2465521383E-01      0.6832570084E-01
          0                 4           1             4    7     1       0.1757102776E-04       4    7    1         0.1008399267E-02      0.2794458233E-02

    ------------------------------------------------
       NWT REQUIRED            4 OUTER ITERATIONS 
       AND A TOTAL OF          7 INNER ITERATIONS.
    ------------------------------------------------

 NO OUTPUT CONTROL FOR STRESS PERIOD    9   TIME STEP    5
 
 SOLVING FOR HEAD 
                                                   Max.-Head-Change                         Max.-Flux-Residual
  Residual-Control   Outer-Iter.   Inner-Iter.     Column Row Layer    Maximum-Head-Change  Column Row Layer    Maximum-Flux-Residual          L2-NORM 
          0                 1           2             4    7     1      -0.6560102431E-01       4    7    1        -0.3463816843E+01      0.9672477560E+01
          0                 2           2             4    7     1       0.6381071273E-02       4    7    1         0.3463734180E+00      0.9673423919E+00
          0                 3           2             4    7     1      -0.4345284682E-03       4    7    1        -0.2424622797E-01      0.6771313098E-01
          0                 4           1             4    7     1       0.1729028876E-04       4    7    1         0.9916717495E-03      0.2769406562E-02

    ------------------------------------------------
       NWT REQUIRED            4 OUTER ITERATIONS 
       AND A TOTAL OF          7 INNER ITERATIONS.
    ------------------------------------------------

 NO OUTPUT CONTROL FOR STRESS PERIOD    9   TIME STEP    6
 
 SOLVING FOR HEAD 
                                                   Max.-Head-Change                         Max.-Flux-Residual
  Residual-Control   Outer-Iter.   Inner-Iter.     Column Row Layer    Maximum-Head-Change  Column Row Layer    Maximum-Flux-Residual          L2-NORM 
          0                 1           2             4    7     1      -0.6459181692E-01       4    7    1        -0.3408469621E+01      0.9590095172E+01
          0                 2           2             4    7     1       0.6262274937E-02       4    7    1         0.3394880848E+00      0.9588803386E+00
          0                 3           2             4    7     1      -0.4264386946E-03       4    7    1        -0.2376424193E-01      0.6712092578E-01
          0                 4           1             4    7     1       0.1696838981E-04       4    7    1         0.9719585428E-03      0.2745200747E-02

    ------------------------------------------------
       NWT REQUIRED            4 OUTER ITERATIONS 
       AND A TOTAL OF          7 INNER ITERATIONS.
    ------------------------------------------------

 NO OUTPUT CONTROL FOR STRESS PERIOD    9   TIME STEP    7
 
 SOLVING FOR HEAD 
                                                   Max.-Head-Change                         Max.-Flux-Residual
  Residual-Control   Outer-Iter.   Inner-Iter.     Column Row Layer    Maximum-Head-Change  Column Row Layer    Maximum-Flux-Residual          L2-NORM 
          0                 1           2             4    7     1      -0.6368669237E-01       4    7    1        -0.3357132502E+01      0.9513772113E+01
          0                 2           2             4    7     1       0.6194880769E-02       4    7    1         0.3357065298E+00      0.9513628030E+00
          0                 3           2             4    7     1      -0.4218493705E-03       4    7    1        -0.2349953083E-01      0.6659482953E-01
          0                 4           1             4    7     1       0.1678577682E-04       4    7    1         0.9611318610E-03      0.2723684104E-02

    ------------------------------------------------
       NWT REQUIRED            4 OUTER ITERATIONS 
       AND A TOTAL OF          7 INNER ITERATIONS.
    ------------------------------------------------

 NO OUTPUT CONTROL FOR STRESS PERIOD    9   TIME STEP    8
 
 SOLVING FOR HEAD 
                                                   Max.-Head-Change                         Max.-Flux-Residual
  Residual-Control   Outer-Iter.   Inner-Iter.     Column Row Layer    Maximum-Head-Change  Column Row Layer    Maximum-Flux-Residual          L2-NORM 
          0                 1           2             4    7     1      -0.6280687710E-01       4    7    1        -0.3309006364E+01      0.9442755649E+01
          0                 2           2             4    7     1       0.6109302987E-02       4    7    1         0.3308942150E+00      0.9442627349E+00
          0                 3           2             4    7     1      -0.4160217987E-03       4    7    1        -0.2316266579E-01      0.6609792602E-01
          0                 4           1             4    7     1       0.1655389222E-04       4    7    1         0.9473540699E-03      0.2703363458E-02

    ------------------------------------------------
       NWT REQUIRED            4 OUTER ITERATIONS 
       AND A TOTAL OF          7 INNER ITERATIONS.
    ------------------------------------------------

 NO OUTPUT CONTROL FOR STRESS PERIOD    9   TIME STEP    9
 
 SOLVING FOR HEAD 
                                                   Max.-Head-Change                         Max.-Flux-Residual
  Residual-Control   Outer-Iter.   Inner-Iter.     Column Row Layer    Maximum-Head-Change  Column Row Layer    Maximum-Flux-Residual          L2-NORM 
          0                 1           2             4    7     1      -0.6197077713E-01       4    7    1        -0.3263285740E+01      0.9376479514E+01
          0                 2           2             4    7     1       0.6027977299E-02       4    7    1         0.3263224363E+00      0.9376362357E+00
          0                 3           2             4    7     1      -0.4104837819E-03       4    7    1        -0.2284263848E-01      0.6563415586E-01
          0                 4           1             4    7     1       0.1633352982E-04       4    7    1         0.9342649578E-03      0.2684420749E-02

    ------------------------------------------------
       NWT REQUIRED            4 OUTER ITERATIONS 
       AND A TOTAL OF          7 INNER ITERATIONS.
    ------------------------------------------------

 NO OUTPUT CONTROL FOR STRESS PERIOD    9   TIME STEP   10
 
 SOLVING FOR HEAD 
                                                   Max.-Head-Change                         Max.-Flux-Residual
  Residual-Control   Outer-Iter.   Inner-Iter.     Column Row Layer    Maximum-Head-Change  Column Row Layer    Maximum-Flux-Residual          L2-NORM 
          0                 1           2             4    7     1      -0.6117611174E-01       4    7    1        -0.3219846293E+01      0.9314443503E+01
          0                 2           2             4    7     1       0.5950681857E-02       4    7    1         0.3219787605E+00      0.9314339145E+00
          0                 3           2             4    7     1      -0.4052202112E-03       4    7    1        -0.2253857851E-01      0.6520006407E-01
          0                 4           1             4    7     1       0.1612408727E-04       4    7    1         0.9218288797E-03      0.2666672927E-02

    ------------------------------------------------
       NWT REQUIRED            4 OUTER ITERATIONS 
       AND A TOTAL OF          7 INNER ITERATIONS.
    ------------------------------------------------

 NO OUTPUT CONTROL FOR STRESS PERIOD    9   TIME STEP   11
 
 SOLVING FOR HEAD 
                                                   Max.-Head-Change                         Max.-Flux-Residual
  Residual-Control   Outer-Iter.   Inner-Iter.     Column Row Layer    Maximum-Head-Change  Column Row Layer    Maximum-Flux-Residual          L2-NORM 
          0                 1           2             4    7     1      -0.6042058569E-01       4    7    1        -0.3178562505E+01      0.9256218984E+01
          0                 2           2             4    7     1       0.5877193408E-02       4    7    1         0.3178506364E+00      0.9256124026E+00
          0                 3           2             4    7     1      -0.4002158847E-03       4    7    1        -0.2224960727E-01      0.6479261975E-01
          0                 4           1             4    7     1       0.1592496073E-04       4    7    1         0.9100099560E-03      0.2649991866E-02

    ------------------------------------------------
       NWT REQUIRED            4 OUTER ITERATIONS 
       AND A TOTAL OF          7 INNER ITERATIONS.
    ------------------------------------------------

 NO OUTPUT CONTROL FOR STRESS PERIOD    9   TIME STEP   12
 
 SOLVING FOR HEAD 
                                                   Max.-Head-Change                         Max.-Flux-Residual
  Residual-Control   Outer-Iter.   Inner-Iter.     Column Row Layer    Maximum-Head-Change  Column Row Layer    Maximum-Flux-Residual          L2-NORM 
          0                 1           2             4    7     1      -0.5970161599E-01       4    7    1        -0.3139293594E+01      0.9201415680E+01
          0                 2           2             4    7     1       0.5807260705E-02       4    7    1         0.3139239865E+00      0.9201328536E+00
          0                 3           2             4    7     1      -0.3954536929E-03       4    7    1        -0.2197473937E-01      0.6440907841E-01
          0                 4           1             4    7     1       0.1573546876E-04       4    7    1         0.8987678507E-03      0.2634310625E-02

    ------------------------------------------------
       NWT REQUIRED            4 OUTER ITERATIONS 
       AND A TOTAL OF          7 INNER ITERATIONS.
    ------------------------------------------------

 NO OUTPUT CONTROL FOR STRESS PERIOD    9   TIME STEP   13
 
 SOLVING FOR HEAD 
                                                   Max.-Head-Change                         Max.-Flux-Residual
  Residual-Control   Outer-Iter.   Inner-Iter.     Column Row Layer    Maximum-Head-Change  Column Row Layer    Maximum-Flux-Residual          L2-NORM 
          0                 1           2             4    7     1      -0.5901755472E-01       4    7    1        -0.3101949172E+01      0.9149682039E+01
          0                 2           2             4    7     1       0.5740723457E-02       4    7    1         0.3101897726E+00      0.9149601797E+00
          0                 3           2             4    7     1      -0.3909227216E-03       4    7    1        -0.2171334214E-01      0.6404705719E-01
          0                 4           1             4    7     1       0.1555517756E-04       4    7    1         0.8880767123E-03      0.2619528036E-02

    ------------------------------------------------
       NWT REQUIRED            4 OUTER ITERATIONS 
       AND A TOTAL OF          7 INNER ITERATIONS.
    ------------------------------------------------

 NO OUTPUT CONTROL FOR STRESS PERIOD    9   TIME STEP   14
 
 SOLVING FOR HEAD 
                                                   Max.-Head-Change                         Max.-Flux-Residual
  Residual-Control   Outer-Iter.   Inner-Iter.     Column Row Layer    Maximum-Head-Change  Column Row Layer    Maximum-Flux-Residual          L2-NORM 
          0                 1           2             4    7     1      -0.5836604377E-01       4    7    1        -0.3066400256E+01      0.9100733752E+01
          0                 2           2             4    7     1       0.5677352292E-02       4    7    1         0.3066350968E+00      0.9100659372E+00
          0                 3           2             4    7     1      -0.3866073500E-03       4    7    1        -0.2146451268E-01      0.6370448997E-01
          0                 4           1             4    7     1       0.1538346520E-04       4    7    1         0.8778995843E-03      0.2605500665E-02

    ------------------------------------------------
       NWT REQUIRED            4 OUTER ITERATIONS 
       AND A TOTAL OF          7 INNER ITERATIONS.
    ------------------------------------------------

 NO OUTPUT CONTROL FOR STRESS PERIOD    9   TIME STEP   15
 
 SOLVING FOR HEAD 
                                                   Max.-Head-Change                         Max.-Flux-Residual
  Residual-Control   Outer-Iter.   Inner-Iter.     Column Row Layer    Maximum-Head-Change  Column Row Layer    Maximum-Flux-Residual          L2-NORM 
          0                 1           2             4    7     1      -0.5774525242E-01       4    7    1        -0.3032546344E+01      0.9054282070E+01
          0                 2           2             4    7     1       0.5616971081E-02       4    7    1         0.3032499096E+00      0.9055578648E+00
          0                 3           2             4    7     1      -0.3824955847E-03       4    7    1        -0.2122754755E-01      0.6338892303E-01
          0                 4           1             4    7     1       0.1521985403E-04       4    7    1         0.8682076950E-03      0.2592597983E-02

    ------------------------------------------------
       NWT REQUIRED            4 OUTER ITERATIONS 
       AND A TOTAL OF          7 INNER ITERATIONS.
    ------------------------------------------------

 NO OUTPUT CONTROL FOR STRESS PERIOD    9   TIME STEP   16
 
 SOLVING FOR HEAD 
                                                   Max.-Head-Change                         Max.-Flux-Residual
  Residual-Control   Outer-Iter.   Inner-Iter.     Column Row Layer    Maximum-Head-Change  Column Row Layer    Maximum-Flux-Residual          L2-NORM 
          0                 1           2             4    7     1      -0.5715343963E-01       4    7    1        -0.3000292408E+01      0.9009992301E+01
          0                 2           2             4    7     1       0.5559404656E-02       4    7    1         0.3000247088E+00      0.9009929815E+00
          0                 3           2             4    7     1      -0.3785754973E-03       4    7    1        -0.2100178156E-01      0.6306942028E-01
          0                 4           1             4    7     1       0.1506387029E-04       4    7    1         0.8589738613E-03      0.2579536162E-02

    ------------------------------------------------
       NWT REQUIRED            4 OUTER ITERATIONS 
       AND A TOTAL OF          7 INNER ITERATIONS.
    ------------------------------------------------

 NO OUTPUT CONTROL FOR STRESS PERIOD    9   TIME STEP   17
 
 SOLVING FOR HEAD 
                                                   Max.-Head-Change                         Max.-Flux-Residual
  Residual-Control   Outer-Iter.   Inner-Iter.     Column Row Layer    Maximum-Head-Change  Column Row Layer    Maximum-Flux-Residual          L2-NORM 
          0                 1           2             4    7     1      -0.5658883874E-01       4    7    1        -0.2969541230E+01      0.8967705393E+01
          0                 2           2             4    7     1       0.5504486992E-02       4    7    1         0.2969497731E+00      0.8967646826E+00
          0                 3           2             4    7     1      -0.3748357827E-03       4    7    1        -0.2078653424E-01      0.6277345551E-01
          0                 4           1             4    7     1       0.1491506384E-04       4    7    1         0.8501702555E-03      0.2567452333E-02

    ------------------------------------------------
       NWT REQUIRED            4 OUTER ITERATIONS 
       AND A TOTAL OF          7 INNER ITERATIONS.
    ------------------------------------------------

 NO OUTPUT CONTROL FOR STRESS PERIOD    9   TIME STEP   18
 
 SOLVING FOR HEAD 
                                                   Max.-Head-Change                         Max.-Flux-Residual
  Residual-Control   Outer-Iter.   Inner-Iter.     Column Row Layer    Maximum-Head-Change  Column Row Layer    Maximum-Flux-Residual          L2-NORM 
          0                 1           2             4    7     1      -0.5604991156E-01       4    7    1        -0.2940208151E+01      0.8927296184E+01
          0                 2           2             4    7     1       0.5452066535E-02       4    7    1         0.2940166370E+00      0.8927240792E+00
          0                 3           2             4    7     1      -0.3712661201E-03       4    7    1        -0.2058121302E-01      0.6249062982E-01
          0                 4           1             4    7     1       0.1477302378E-04       4    7    1         0.8417726117E-03      0.2555859170E-02

    ------------------------------------------------
       NWT REQUIRED            4 OUTER ITERATIONS 
       AND A TOTAL OF          7 INNER ITERATIONS.
    ------------------------------------------------

 NO OUTPUT CONTROL FOR STRESS PERIOD    9   TIME STEP   19
 
 SOLVING FOR HEAD 
                                                   Max.-Head-Change                         Max.-Flux-Residual
  Residual-Control   Outer-Iter.   Inner-Iter.     Column Row Layer    Maximum-Head-Change  Column Row Layer    Maximum-Flux-Residual          L2-NORM 
          0                 1           2             4    7     1      -0.5553507403E-01       4    7    1        -0.2912206264E+01      0.8888591431E+01
          0                 2           2             4    7     1       0.5401989206E-02       4    7    1         0.2912166105E+00      0.8888538789E+00
          0                 3           2             4    7     1      -0.3678560168E-03       4    7    1        -0.2038520953E-01      0.6221971961E-01
          0                 4           1             4    7     1       0.1463733301E-04       4    7    1         0.8337560753E-03      0.2544781659E-02

    ------------------------------------------------
       NWT REQUIRED            4 OUTER ITERATIONS 
       AND A TOTAL OF          7 INNER ITERATIONS.
    ------------------------------------------------

 NO OUTPUT CONTROL FOR STRESS PERIOD    9   TIME STEP   20
 
 SOLVING FOR HEAD 
                                                   Max.-Head-Change                         Max.-Flux-Residual
  Residual-Control   Outer-Iter.   Inner-Iter.     Column Row Layer    Maximum-Head-Change  Column Row Layer    Maximum-Flux-Residual          L2-NORM 
          0                 1           2             4    7     1      -0.5504283401E-01       4    7    1        -0.2885453438E+01      0.8851436082E+01
          0                 2           2             4    7     1       0.5354109868E-02       4    7    1         0.2885414809E+00      0.8851386017E+00
          0                 3           2             4    7     1      -0.3645955899E-03       4    7    1        -0.2019794894E-01      0.6195967381E-01
          0                 4           1             4    7     1       0.1450759722E-04       4    7    1         0.8260970922E-03      0.2534149813E-02

    ------------------------------------------------
       NWT REQUIRED            4 OUTER ITERATIONS 
       AND A TOTAL OF          7 INNER ITERATIONS.
    ------------------------------------------------

 NO OUTPUT CONTROL FOR STRESS PERIOD    9   TIME STEP   21
 
 SOLVING FOR HEAD 
                                                   Max.-Head-Change                         Max.-Flux-Residual
  Residual-Control   Outer-Iter.   Inner-Iter.     Column Row Layer    Maximum-Head-Change  Column Row Layer    Maximum-Flux-Residual          L2-NORM 
          0                 1           2             4    7     1      -0.5457191744E-01       4    7    1        -0.2859879554E+01      0.8815685208E+01
          0                 2           2             4    7     1       0.5308304597E-02       4    7    1         0.2859842366E+00      0.8815637366E+00
          0                 3           2             4    7     1      -0.3614764006E-03       4    7    1        -0.2001894040E-01      0.6170943110E-01
          0                 4           1             4    7     1       0.1438348172E-04       4    7    1         0.8187756430E-03      0.2523907965E-02

    ------------------------------------------------
       NWT REQUIRED            4 OUTER ITERATIONS 
       AND A TOTAL OF          7 INNER ITERATIONS.
    ------------------------------------------------

 NO OUTPUT CONTROL FOR STRESS PERIOD    9   TIME STEP   22
 
 SOLVING FOR HEAD 
                                                   Max.-Head-Change                         Max.-Flux-Residual
  Residual-Control   Outer-Iter.   Inner-Iter.     Column Row Layer    Maximum-Head-Change  Column Row Layer    Maximum-Flux-Residual          L2-NORM 
          0                 1           2             4    7     1      -0.5412099532E-01       4    7    1        -0.2835411301E+01      0.8781221043E+01
          0                 2           2             4    7     1       0.5264444123E-02       4    7    1         0.2835375473E+00      0.8781175249E+00
          0                 3           2             4    7     1      -0.3584896458E-03       4    7    1        -0.1984767079E-01      0.6146821719E-01
          0                 4           1             4    7     1       0.1426463619E-04       4    7    1         0.8117707084E-03      0.2514048404E-02

    ------------------------------------------------
       NWT REQUIRED            4 OUTER ITERATIONS 
       AND A TOTAL OF          7 INNER ITERATIONS.
    ------------------------------------------------

 NO OUTPUT CONTROL FOR STRESS PERIOD    9   TIME STEP   23
 
 SOLVING FOR HEAD 
                                                   Max.-Head-Change                         Max.-Flux-Residual
  Residual-Control   Outer-Iter.   Inner-Iter.     Column Row Layer    Maximum-Head-Change  Column Row Layer    Maximum-Flux-Residual          L2-NORM 
          0                 1           2             4    7     1      -0.5368881800E-01       4    7    1        -0.2811979770E+01      0.8747957794E+01
          0                 2           2             4    7     1       0.5222406895E-02       4    7    1         0.2811945224E+00      0.8747913840E+00
          0                 3           2             4    7     1      -0.3556270483E-03       4    7    1        -0.1968365775E-01      0.6123538799E-01
          0                 4           1             4    7     1       0.1415073090E-04       4    7    1         0.8050625784E-03      0.2504523261E-02

    ------------------------------------------------
       NWT REQUIRED            4 OUTER ITERATIONS 
       AND A TOTAL OF          7 INNER ITERATIONS.
    ------------------------------------------------

 NO OUTPUT CONTROL FOR STRESS PERIOD    9   TIME STEP   24
 
 SOLVING FOR HEAD 
                                                   Max.-Head-Change                         Max.-Flux-Residual
  Residual-Control   Outer-Iter.   Inner-Iter.     Column Row Layer    Maximum-Head-Change  Column Row Layer    Maximum-Flux-Residual          L2-NORM 
          0                 1           2             4    7     1      -0.5327433909E-01       4    7    1        -0.2789527414E+01      0.8715765944E+01
          0                 2           2             4    7     1       0.5182091136E-02       4    7    1         0.2789494076E+00      0.8715723579E+00
          0                 3           2             4    7     1      -0.3528816777E-03       4    7    1        -0.1952649852E-01      0.6101005779E-01
          0                 4           1             4    7     1       0.1404149000E-04       4    7    1         0.7986347550E-03      0.2495304542E-02

    ------------------------------------------------
       NWT REQUIRED            4 OUTER ITERATIONS 
       AND A TOTAL OF          7 INNER ITERATIONS.
    ------------------------------------------------

 NO OUTPUT CONTROL FOR STRESS PERIOD    9   TIME STEP   25
 
 SOLVING FOR HEAD 
                                                   Max.-Head-Change                         Max.-Flux-Residual
  Residual-Control   Outer-Iter.   Inner-Iter.     Column Row Layer    Maximum-Head-Change  Column Row Layer    Maximum-Flux-Residual          L2-NORM 
          0                 1           2             4    7     1      -0.5287631181E-01       4    7    1        -0.2767985484E+01      0.8684569606E+01
          0                 2           2             4    7     1       0.5143375572E-02       4    7    1         0.2767953284E+00      0.8684528650E+00
          0                 3           2             4    7     1      -0.3502452755E-03       4    7    1        -0.1937571183E-01      0.6079171100E-01
          0                 4           1             4    7     1       0.1393658527E-04       4    7    1         0.7924675856E-03      0.2486381859E-02

    ------------------------------------------------
       NWT REQUIRED            4 OUTER ITERATIONS 
       AND A TOTAL OF          7 INNER ITERATIONS.
    ------------------------------------------------

 NO OUTPUT CONTROL FOR STRESS PERIOD    9   TIME STEP   26
 
 SOLVING FOR HEAD 
                                                   Max.-Head-Change                         Max.-Flux-Residual
  Residual-Control   Outer-Iter.   Inner-Iter.     Column Row Layer    Maximum-Head-Change  Column Row Layer    Maximum-Flux-Residual          L2-NORM 
          0                 1           2             4    7     1      -0.5249396411E-01       4    7    1        -0.2747311071E+01      0.8654298585E+01
          0                 2           2             4    7     1       0.5106185111E-02       4    7    1         0.2747279943E+00      0.8654258894E+00
          0                 3           2             4    7     1      -0.3477127273E-03       4    7    1        -0.1923099736E-01      0.6057981780E-01
          0                 4           1             4    7     1       0.1383581270E-04       4    7    1         0.7865487446E-03      0.2477711068E-02

    ------------------------------------------------
       NWT REQUIRED            4 OUTER ITERATIONS 
       AND A TOTAL OF          7 INNER ITERATIONS.
    ------------------------------------------------

 NO OUTPUT CONTROL FOR STRESS PERIOD    9   TIME STEP   27
 
 SOLVING FOR HEAD 
                                                   Max.-Head-Change                         Max.-Flux-Residual
  Residual-Control   Outer-Iter.   Inner-Iter.     Column Row Layer    Maximum-Head-Change  Column Row Layer    Maximum-Flux-Residual          L2-NORM 
          0                 1           2             4    7     1      -0.5212617249E-01       4    7    1        -0.2727442408E+01      0.8624868828E+01
          0                 2           2             4    7     1       0.5070410470E-02       4    7    1         0.2727412291E+00      0.8624830317E+00
          0                 3           2             4    7     1      -0.3452765931E-03       4    7    1        -0.1909192279E-01      0.6037382677E-01
          0                 4           1             4    7     1       0.1373887699E-04       4    7    1         0.7808606024E-03      0.2469288949E-02

    ------------------------------------------------
       NWT REQUIRED            4 OUTER ITERATIONS 
       AND A TOTAL OF          7 INNER ITERATIONS.
    ------------------------------------------------

 NO OUTPUT CONTROL FOR STRESS PERIOD    9   TIME STEP   28
 
 SOLVING FOR HEAD 
                                                   Max.-Head-Change                         Max.-Flux-Residual
  Residual-Control   Outer-Iter.   Inner-Iter.     Column Row Layer    Maximum-Head-Change  Column Row Layer    Maximum-Flux-Residual          L2-NORM 
          0                 1           2             3    7     1      -0.5183708270E-01       4    7    1        -0.2708328487E+01      0.8596233454E+01
          0                 2           2             3    7     1       0.5042295627E-02       4    7    1         0.2708299322E+00      0.8596195995E+00
          0                 3           2             3    7     1      -0.3433620206E-03       4    7    1        -0.1895813104E-01      0.6017338908E-01
          0                 4           1             3    7     1       0.1366272054E-04       4    7    1         0.7753885243E-03      0.2461090033E-02

    ------------------------------------------------
       NWT REQUIRED            4 OUTER ITERATIONS 
       AND A TOTAL OF          7 INNER ITERATIONS.
    ------------------------------------------------

 NO OUTPUT CONTROL FOR STRESS PERIOD    9   TIME STEP   29
 
 SOLVING FOR HEAD 
                                                   Max.-Head-Change                         Max.-Flux-Residual
  Residual-Control   Outer-Iter.   Inner-Iter.     Column Row Layer    Maximum-Head-Change  Column Row Layer    Maximum-Flux-Residual          L2-NORM 
          0                 1           2             3    7     1      -0.5159468688E-01       4    7    1        -0.2689928845E+01      0.8568314452E+01
          0                 2           2             3    7     1       0.5018717393E-02       4    7    1         0.2689900578E+00      0.8568277958E+00
          0                 3           2             3    7     1      -0.3417564278E-03       4    7    1        -0.1882933892E-01      0.5997796720E-01
          0                 4           1             3    7     1       0.1359883209E-04       4    7    1         0.7701209029E-03      0.2453097974E-02

    ------------------------------------------------
       NWT REQUIRED            4 OUTER ITERATIONS 
       AND A TOTAL OF          7 INNER ITERATIONS.
    ------------------------------------------------

 NO OUTPUT CONTROL FOR STRESS PERIOD    9   TIME STEP   30



 STREAM LISTING     PERIOD      9   STEP       30

 LAYER ROW COL. STREAM  RCH.  FLOW INTO     FLOW TO   FLOW OUT OF   OVRLND.     DIRECT     STREAM       STREAM     STREAM     STREAM   STREAMBED  STREAMBED
                SEG.NO.  NO.  STRM. RCH.    AQUIFER    STRM. RCH.    RUNOFF     PRECIP       ET          HEAD       DEPTH      WIDTH   CONDCTNC.   GRADIENT

   1    1    1     1     1    6.1000E+01  3.7546E-01   6.0624E+01  0.000E+00  0.000E+00  0.000E+00  1.09459E+03  1.538E+00  1.839E+01  8.274E-02  1.513E+00
   1    2    2     1     2    6.0624E+01  5.8146E-01   6.0043E+01  0.000E+00  0.000E+00  0.000E+00  1.08959E+03  1.532E+00  1.833E+01  1.283E-01  1.511E+00
   1    3    3     1     3    6.0043E+01  4.9588E-01   5.9547E+01  0.000E+00  0.000E+00  0.000E+00  1.08394E+03  1.525E+00  1.826E+01  1.096E-01  1.508E+00
   1    3    4     1     4    5.9547E+01  4.5664E-01   5.9090E+01  0.000E+00  0.000E+00  0.000E+00  1.07893E+03  1.519E+00  1.821E+01  1.010E-01  1.506E+00
   1    4    5     2     1    5.7090E+01  3.8827E-01   5.6702E+01  0.000E+00  0.000E+00  0.000E+00  1.07391E+03  1.978E+00  1.200E+01  7.800E-02  1.659E+00
   1    5    6     2     2    5.6702E+01  2.9824E-01   5.6404E+01  0.000E+00  0.000E+00  0.000E+00  1.06848E+03  1.971E+00  1.200E+01  6.000E-02  1.657E+00
   1    6    6     2     3    5.6404E+01  2.9787E-01   5.6106E+01  0.000E+00  0.000E+00  0.000E+00  1.06376E+03  1.964E+00  1.200E+01  6.000E-02  1.655E+00
   1    7    6     2     4    5.6106E+01  2.9749E-01   5.5808E+01  0.000E+00  0.000E+00  0.000E+00  1.05903E+03  1.958E+00  1.200E+01  6.000E-02  1.653E+00
   1    8    6     2     5    5.5808E+01  2.9712E-01   5.5511E+01  0.000E+00  0.000E+00  0.000E+00  1.05431E+03  1.952E+00  1.200E+01  6.000E-02  1.651E+00
   1    3    5     3     1    2.0000E+00  2.8252E-01   1.7175E+00  0.000E+00  0.000E+00  0.000E+00  1.07555E+03  1.909E+00  9.636E+00  7.227E-02  1.955E+00
   1    3    6     3     2    1.7175E+00  2.4905E-01   1.4684E+00  0.000E+00  0.000E+00  0.000E+00  1.07264E+03  1.727E+00  8.909E+00  6.682E-02  1.864E+00
   1    3    7     3     3    1.4684E+00  1.9718E-01   1.2712E+00  0.000E+00  0.000E+00  0.000E+00  1.06987E+03  1.555E+00  8.218E+00  5.547E-02  1.777E+00
   1    4    8     3     4    1.2712E+00  2.2567E-01   1.0456E+00  0.000E+00  0.000E+00  0.000E+00  1.06682E+03  1.364E+00  7.455E+00  6.709E-02  1.682E+00
   1    5    8     3     5    1.0456E+00  1.5790E-01   8.8768E-01  0.000E+00  0.000E+00  0.000E+00  1.06362E+03  1.164E+00  6.655E+00  4.991E-02  1.582E+00
   1    6    8     3     6    8.8768E-01  5.5980E-02   8.3170E-01  0.000E+00  0.000E+00  0.000E+00  1.06158E+03  1.036E+00  6.145E+00  1.844E-02  1.518E+00
   1    5   10     4     1    1.0000E+01  9.0919E-02   9.9091E+00  0.000E+00  0.000E+00  0.000E+00  1.07836E+03  6.368E-01  1.000E+01  2.500E-02  1.212E+00
   1    5    9     4     2    9.9091E+00  1.8158E-01   9.7275E+00  0.000E+00  0.000E+00  0.000E+00  1.07154E+03  6.315E-01  1.000E+01  5.000E-02  1.211E+00
   1    6    8     4     3    9.7275E+00  1.2689E-01   9.6006E+00  0.000E+00  0.000E+00  0.000E+00  1.06381E+03  6.256E-01  1.000E+01  3.500E-02  1.209E+00
   1    6    8     5     1    1.0432E+01  2.2686E-01   1.0205E+01  0.000E+00  0.000E+00  0.000E+00  1.05868E+03  6.790E-01  1.542E+01  6.166E-02  1.226E+00
   1    7    7     5     2    1.0205E+01  2.7894E-01   9.9265E+00  0.000E+00  0.000E+00  0.000E+00  1.05417E+03  6.732E-01  1.519E+01  7.594E-02  1.224E+00
   1    8    7     5     3    9.9265E+00  1.9221E-01   9.7343E+00  0.000E+00  0.000E+00  0.000E+00  1.04992E+03  6.676E-01  1.497E+01  5.241E-02  1.223E+00
   1    8    6     5     4    9.7343E+00  1.3577E-01   9.5985E+00  0.000E+00  0.000E+00  0.000E+00  1.04691E+03  6.637E-01  1.482E+01  3.706E-02  1.221E+00
   1    9    6     6     1    6.5110E+01  3.0992E-01   6.4800E+01  0.000E+00  0.000E+00  0.000E+00  1.04489E+03  2.165E+00  1.200E+01  6.000E-02  1.722E+00
   1   10    7     6     2    6.4800E+01  3.0955E-01   6.4490E+01  0.000E+00  0.000E+00  0.000E+00  1.04034E+03  2.159E+00  1.200E+01  6.000E-02  1.720E+00
   1   11    7     6     3    6.4490E+01  3.0918E-01   6.4181E+01  0.000E+00  0.000E+00  0.000E+00  1.03579E+03  2.153E+00  1.200E+01  6.000E-02  1.718E+00
   1   12    7     6     4    6.4181E+01  3.0881E-01   6.3872E+01  0.000E+00  0.000E+00  0.000E+00  1.03124E+03  2.147E+00  1.200E+01  6.000E-02  1.716E+00
   1   13    7     6     5    6.3872E+01  1.9339E-02   6.3853E+01  0.000E+00  0.000E+00  0.000E+00  1.02805E+03  2.143E+00  1.200E+01  2.400E-02  2.686E-01
   1   14    9     7     1    1.5000E+02  1.3312E+00   1.4867E+02  0.000E+00  0.000E+00  0.000E+00  1.03987E+03  2.288E+00  5.529E+01  5.593E-01  7.934E-01
   1   13    8     7     2    1.4867E+02  1.7954E+00   1.4687E+02  0.000E+00  0.000E+00  0.000E+00  1.03478E+03  2.279E+00  5.526E+01  6.148E-01  9.735E-01
   1   13    7     7     3    1.4687E+02  1.3647E+00   1.4551E+02  0.000E+00  0.000E+00  0.000E+00  1.02969E+03  2.271E+00  5.522E+01  5.585E-01  8.145E-01
   1   13    6     8     1    2.0936E+02  9.6435E-01   2.0840E+02  0.000E+00  0.000E+00  0.000E+00  1.02506E+03  3.189E+00  4.624E+01  4.712E-01  6.821E-01
   1   13    5     8     2    2.0840E+02  1.7041E-01   2.0823E+02  0.000E+00  0.000E+00  0.000E+00  1.01881E+03  3.186E+00  4.620E+01  4.708E-01  1.207E-01
   1   13    4     8     3    2.0823E+02 -2.1828E+00   2.1041E+02  0.000E+00  0.000E+00  0.000E+00  1.01257E+03  3.192E+00  4.628E+01  4.716E+00 -1.543E-01
   1   13    3     8     4    2.1041E+02 -3.3093E+00   2.1372E+02  0.000E+00  0.000E+00  0.000E+00  1.00633E+03  3.207E+00  4.651E+01  4.739E+00 -2.328E-01
   1   13    2     8     5    2.1372E+02 -2.5495E+00   2.1627E+02  0.000E+00  0.000E+00  0.000E+00  1.00010E+03  3.224E+00  4.675E+01  4.764E+00 -1.784E-01
   1   13    1     8     6    2.1627E+02 -2.0052E+00   2.1827E+02  0.000E+00  0.000E+00  0.000E+00  9.95112E+02  3.237E+00  4.693E+01  2.870E+00 -2.329E-01





UNSATURATED ZONE PACKAGE VOLUMETRIC BUDGET FOR  TIME STEP    30 STRESS PERIOD    9
  ------------------------------------------------------------------------------



     CUMULATIVE VOLUMES      L**3       RATES FOR THIS TIME STEP      L**3/T
     ------------------                 ------------------------

           IN:                                      IN:
           ---                                      ---
        INFILTRATION =   464236693.4143          INFILTRATION =          49.5675

          OUT:                                     OUT:
          ----                                     ----
              UZF ET =   392144630.2011                UZF ET =          49.5675
        UZF RECHARGE =       73224.0000          UZF RECHARGE =       0.0000E+00

            IN - OUT =    72018839.2132              IN - OUT =       0.0000E+00

          STORAGE:                                 STORAGE:
          --------                                 --------
      STORAGE CHANGE =    72018832.1148        STORAGE CHANGE =       2.8417E-13

 PERCENT DISCREPANCY IS DIFFERENCE BETWEEN IN-OUT MINUS CHANGE IN STORAGE
 DIVIDED BY THE AVERAGE OF IN AND OUT TIMES 100

 PERCENT DISCREPANCY =           0.00     PERCENT DISCREPANCY =           0.00






1
  VOLUMETRIC BUDGET FOR AGRICULTURAL FIELDS AT  END OF TIME STEP   30, STRESS PERIOD   9
  ------------------------------------------------------------------------------

     CUMULATIVE VOLUMES      L**3       RATES FOR THIS TIME STEP      L**3/T
     ------------------                 ------------------------

           IN:                                      IN:
           ---                                      ---
               AG WELLS  =   446331648.0000                 AG WELLS  =          48.7200
      DIVERSION SEGMENTS =           0.0000        DIVERSION SEGMENTS =           0.0000
           GW IRRIGATION =           0.0000             GW IRRIGATION =           0.0000
           SW IRRIGATION =           0.0000             SW IRRIGATION =           0.0000
        SYSTEM LOSSES GW =           0.0000          SYSTEM LOSSES GW =           0.0000
        SYSTEM LOSSES SW =           0.0000          SYSTEM LOSSES SW =           0.0000

                TOTAL IN =   446331648.0000                  TOTAL IN =          48.7200

          OUT:                                     OUT:
          ----                                     ----
               AG WELLS  =           0.0000                 AG WELLS  =           0.0000
      DIVERSION SEGMENTS =           0.0000        DIVERSION SEGMENTS =           0.0000
           GW IRRIGATION =   446331648.0000             GW IRRIGATION =          48.7200
           SW IRRIGATION =           0.0000             SW IRRIGATION =           0.0000
        SYSTEM LOSSES GW =           0.0000          SYSTEM LOSSES GW =           0.0000
        SYSTEM LOSSES SW =           0.0000          SYSTEM LOSSES SW =           0.0000

               TOTAL OUT =   446331648.0000                 TOTAL OUT =          48.7200

                IN - OUT =           0.0000                  IN - OUT =           0.0000

     PERCENT DISCREPANCY =           0.00         PERCENT DISCREPANCY =           0.00



1
  VOLUMETRIC BUDGET FOR ENTIRE MODEL AT END OF TIME STEP   30, STRESS PERIOD   9
  ------------------------------------------------------------------------------

     CUMULATIVE VOLUMES      L**3       RATES FOR THIS TIME STEP      L**3/T
     ------------------                 ------------------------

           IN:                                      IN:
           ---                                      ---
             STORAGE     =   448563584.0000               STORAGE     =          47.7549
       CONSTANT HEAD     =           0.0000         CONSTANT HEAD     =           0.0000
     HEAD DEP BOUNDS     =     6030661.5000       HEAD DEP BOUNDS     =           0.2854
      STREAM LEAKAGE     =   270659904.0000        STREAM LEAKAGE     =          12.7727
        UZF RECHARGE     =       73223.9531          UZF RECHARGE     =           0.0000
               GW ET     =           0.0000                 GW ET     =           0.0000
     SURFACE LEAKAGE     =           0.0000       SURFACE LEAKAGE     =           0.0000
           AG WELLS      =           0.0000             AG WELLS      =           0.0000

                TOTAL IN =   725327360.0000                  TOTAL IN =          60.8130

          OUT:                                     OUT:
          ----                                     ----
             STORAGE     =    47415804.0000               STORAGE     =           0.7708
       CONSTANT HEAD     =           0.0000         CONSTANT HEAD     =           0.0000
     HEAD DEP BOUNDS     =     6242937.0000       HEAD DEP BOUNDS     =           0.2968
      STREAM LEAKAGE     =   212315408.0000        STREAM LEAKAGE     =          10.0468
        UZF RECHARGE     =           0.0000          UZF RECHARGE     =           0.0000
               GW ET     =    13017634.0000                 GW ET     =           0.9788
     SURFACE LEAKAGE     =           0.0000       SURFACE LEAKAGE     =           0.0000
           AG WELLS      =   446331648.0000             AG WELLS      =          48.7200

               TOTAL OUT =   725323392.0000                 TOTAL OUT =          60.8132

                IN - OUT =        3968.0000                  IN - OUT =      -1.6785E-04

     PERCENT DISCREPANCY =           0.00         PERCENT DISCREPANCY =          -0.00






         TIME SUMMARY AT END OF TIME STEP   30 IN STRESS PERIOD    9
                    SECONDS     MINUTES      HOURS       DAYS        YEARS
                    -----------------------------------------------------------
   TIME STEP LENGTH  87667.      1461.1      24.352      1.0147     2.77799E-03
 STRESS PERIOD TIME 2.63000E+06  43833.      730.56      30.440     8.33397E-02
         TOTAL TIME 2.11264E+07 3.52107E+05  5868.4      244.52     0.66945    
1
1
                            STRESS PERIOD NO.   10, LENGTH =   2630000.    
                            -----------------------------------------------

                              NUMBER OF TIME STEPS =    30

                               MULTIPLIER FOR DELT =     1.000

                            INITIAL TIME STEP SIZE =   87666.66    

 REUSING NON-PARAMETER GHB CELLS FROM LAST STRESS PERIOD

      2 GHB CELLS

 REUSING STREAM SEGMENT DATA FROM LAST STRESS PERIOD



            AREAL INFILTRATION RATE
 READING ON UNIT   19 WITH FORMAT: (FREE)              

            1           2           3           4           5           6           7           8           9          10
 ........................................................................................................................
   1   1.0000E-10  2.0000E-10   0.000       0.000       0.000       0.000       0.000       0.000       0.000       0.000    
   2   2.0000E-10  1.0000E-10  2.0000E-10   0.000       0.000      8.0000E-10  8.0000E-10  5.0000E-10   0.000       0.000    
   3    0.000      5.0000E-10  1.0000E-10  1.0000E-10  8.0000E-10  8.0000E-10  5.0000E-10  5.0000E-10   0.000       0.000    
   4   8.0000E-10  5.0000E-10  1.0000E-10  1.0000E-10  1.0000E-10  1.0000E-10  1.0000E-10  1.0000E-10  2.0000E-10   0.000    
   5   8.0000E-10  5.0000E-10  1.0000E-10  1.0000E-10  1.0000E-10  1.0000E-10  1.0000E-10  1.0000E-10  1.0000E-10  1.0000E-10
   6   8.0000E-10  5.0000E-10  5.0000E-10  2.0000E-10  2.0000E-10  1.0000E-10  1.0000E-10  1.0000E-10  1.0000E-10  5.0000E-10
   7   8.0000E-10  5.0000E-10  5.0000E-10  2.0000E-10  2.0000E-10  1.0000E-10  1.0000E-10  2.0000E-10  2.0000E-10   0.000    
   8    0.000      5.0000E-10  5.0000E-10  2.0000E-10  2.0000E-10  1.0000E-10  1.0000E-10  2.0000E-10  5.0000E-10   0.000    
   9    0.000      5.0000E-10  5.0000E-10  2.0000E-10  2.0000E-10  1.0000E-10  1.0000E-10  2.0000E-10  5.0000E-10   0.000    
  10    0.000      5.0000E-10  5.0000E-10  2.0000E-10  2.0000E-10  1.0000E-10  1.0000E-10  2.0000E-10  5.0000E-10  8.0000E-10
  11    0.000      1.0000E-10  1.0000E-10  1.0000E-10  1.0000E-10  1.0000E-10  1.0000E-10  2.0000E-10  5.0000E-10   0.000    
  12   1.0000E-10  1.0000E-10  1.0000E-10  1.0000E-10  1.0000E-10  1.0000E-10  1.0000E-10  1.0000E-10  2.0000E-10   0.000    
  13   1.0000E-10  1.0000E-10  2.0000E-10  2.0000E-10  2.0000E-10  2.0000E-10  2.0000E-10  1.0000E-10  1.0000E-10   0.000    
  14    0.000      2.0000E-10  5.0000E-10  5.0000E-10  5.0000E-10  5.0000E-10  5.0000E-10  2.0000E-10  1.0000E-10   0.000    
  15    0.000       0.000      8.0000E-10  8.0000E-10  8.0000E-10  8.0000E-10   0.000       0.000       0.000       0.000    

                  ET RATE =  7.500000E-08

 USING ET EXTINCTION DEPTH FROM PREVIOUS STRESS PERIOD. CURRENT PERIOD IS:      10

 USING EXTINCTION WATER CONTENT FROM PREVIOUS STRESS PERIOD. CURRENT PERIOD IS:      10

 USING AIR ENTRY PRESSURE FROM PREVIOUS STRESS PERIOD. CURRENT PERIOD IS:      10

 USING ROOT PRESSURE HEAD FROM PREVIOUS STRESS PERIOD. CURRENT PERIOD IS:      10

 USING ROOT ACTIVITY FROM PREVIOUS STRESS PERIOD. CURRENT PERIOD IS:      10

 PROCESSING AG STRESS PERIOD DATA

 READING AG STRESS PERIOD DATA

 READING IRRIGATION WELL

 END PROCESSING AG STRESS PERIOD DATA OPTIONS
 
 SOLVING FOR HEAD 
                                                   Max.-Head-Change                         Max.-Flux-Residual
  Residual-Control   Outer-Iter.   Inner-Iter.     Column Row Layer    Maximum-Head-Change  Column Row Layer    Maximum-Flux-Residual          L2-NORM 
          0                 1           2             5    6     1       0.7956895981E-01       5    8    1         0.4326773787E+01      0.1189019329E+02
          0                 2           2             5    6     1      -0.7739723659E-02       5    8    1        -0.4326662050E+00      0.1188969737E+01
          0                 3           2             5    6     1       0.5270460275E-03       5    8    1         0.3028663507E-01      0.8322620899E-01
          0                 4           1             5    6     1      -0.2097160396E-04       5    8    1        -0.1238724593E-02      0.3403814172E-02

    ------------------------------------------------
       NWT REQUIRED            4 OUTER ITERATIONS 
       AND A TOTAL OF          7 INNER ITERATIONS.
    ------------------------------------------------

 NO OUTPUT CONTROL FOR STRESS PERIOD   10   TIME STEP    1
 
 SOLVING FOR HEAD 
                                                   Max.-Head-Change                         Max.-Flux-Residual
  Residual-Control   Outer-Iter.   Inner-Iter.     Column Row Layer    Maximum-Head-Change  Column Row Layer    Maximum-Flux-Residual          L2-NORM 
          0                 1           2             5    8     1       0.1564848603E+00       5    8    1         0.8572147860E+01      0.1376690134E+02
          0                 2           2             5    6     1      -0.7414974543E-02       5    6    1        -0.4135183270E+00      0.1084201471E+01
          0                 3           2             5    8     1       0.5541019563E-03       5    8    1         0.3012625860E-01      0.8121769356E-01
          0                 4           1             5    8     1       0.1453160492E-03       5    8    1         0.8037693353E-02      0.8605542830E-02
          0                 5           1             5    8     1       0.3810986825E-04       5    8    1         0.2102605723E-02      0.2103221815E-02

    ------------------------------------------------
       NWT REQUIRED            5 OUTER ITERATIONS 
       AND A TOTAL OF          8 INNER ITERATIONS.
    ------------------------------------------------

 NO OUTPUT CONTROL FOR STRESS PERIOD   10   TIME STEP    2
 
 SOLVING FOR HEAD 
                                                   Max.-Head-Change                         Max.-Flux-Residual
  Residual-Control   Outer-Iter.   Inner-Iter.     Column Row Layer    Maximum-Head-Change  Column Row Layer    Maximum-Flux-Residual          L2-NORM 
          0                 1           2             5    8     1       0.1497819504E+00       5    8    1         0.8197362355E+01      0.1332646821E+02
          0                 2           2             5    8     1       0.3927984988E-01       5    8    1         0.2175030992E+01      0.2415498838E+01
          0                 3           2             5    8     1       0.5723407292E-02       5    8    1         0.3153588064E+00      0.3239256129E+00
          0                 4           1             5    8     1      -0.5564456240E-03       5    8    1        -0.3156863015E-01      0.3170508301E-01
          0                 5           1             5    8     1       0.3786466542E-04       5    8    1         0.2210158037E-02      0.2211067394E-02

    ------------------------------------------------
       NWT REQUIRED            5 OUTER ITERATIONS 
       AND A TOTAL OF          8 INNER ITERATIONS.
    ------------------------------------------------

 NO OUTPUT CONTROL FOR STRESS PERIOD   10   TIME STEP    3
 
 SOLVING FOR HEAD 
                                                   Max.-Head-Change                         Max.-Flux-Residual
  Residual-Control   Outer-Iter.   Inner-Iter.     Column Row Layer    Maximum-Head-Change  Column Row Layer    Maximum-Flux-Residual          L2-NORM 
          0                 1           2             5    8     1       0.1386587830E+00       5    8    1         0.7577060663E+01      0.1276614159E+02
          0                 2           2             5    8     1      -0.1348112560E-01       5    8    1        -0.7573371381E+00      0.1276360207E+01
          0                 3           2             5    8     1       0.9173499393E-03       5    8    1         0.5297481566E-01      0.8932164718E-01
          0                 4           1             5    8     1      -0.3645860353E-04       5    8    1        -0.2164058462E-02      0.3651673176E-02

    ------------------------------------------------
       NWT REQUIRED            4 OUTER ITERATIONS 
       AND A TOTAL OF          7 INNER ITERATIONS.
    ------------------------------------------------

 NO OUTPUT CONTROL FOR STRESS PERIOD   10   TIME STEP    4
 
 SOLVING FOR HEAD 
                                                   Max.-Head-Change                         Max.-Flux-Residual
  Residual-Control   Outer-Iter.   Inner-Iter.     Column Row Layer    Maximum-Head-Change  Column Row Layer    Maximum-Flux-Residual          L2-NORM 
          0                 1           2             5    8     1       0.1319733680E+00       5    8    1         0.7205446125E+01      0.1234892697E+02
          0                 2           2             5    8     1      -0.1283110896E-01       5    8    1        -0.7201916396E+00      0.1234655106E+01
          0                 3           2             5    8     1       0.8731184274E-03       5    8    1         0.5037651241E-01      0.8640375518E-01
          0                 4           1             5    8     1      -0.3470069223E-04       5    8    1        -0.2057913701E-02      0.3532478978E-02

    ------------------------------------------------
       NWT REQUIRED            4 OUTER ITERATIONS 
       AND A TOTAL OF          7 INNER ITERATIONS.
    ------------------------------------------------

 NO OUTPUT CONTROL FOR STRESS PERIOD   10   TIME STEP    5
 
 SOLVING FOR HEAD 
                                                   Max.-Head-Change                         Max.-Flux-Residual
  Residual-Control   Outer-Iter.   Inner-Iter.     Column Row Layer    Maximum-Head-Change  Column Row Layer    Maximum-Flux-Residual          L2-NORM 
          0                 1           2             5    8     1       0.1257189830E+00       5    8    1         0.6858031133E+01      0.1195703292E+02
          0                 2           2             5    8     1      -0.1222300355E-01       5    8    1        -0.6854652490E+00      0.1195480914E+01
          0                 3           2             5    8     1       0.8317388121E-03       5    8    1         0.4794742367E-01      0.8366300246E-01
          0                 4           1             5    8     1      -0.3305612497E-04       5    8    1        -0.1958681693E-02      0.3420425188E-02

    ------------------------------------------------
       NWT REQUIRED            4 OUTER ITERATIONS 
       AND A TOTAL OF          7 INNER ITERATIONS.
    ------------------------------------------------

 NO OUTPUT CONTROL FOR STRESS PERIOD   10   TIME STEP    6
 
 SOLVING FOR HEAD 
                                                   Max.-Head-Change                         Max.-Flux-Residual
  Residual-Control   Outer-Iter.   Inner-Iter.     Column Row Layer    Maximum-Head-Change  Column Row Layer    Maximum-Flux-Residual          L2-NORM 
          0                 1           2             5    8     1       0.1198641163E+00       5    8    1         0.6533034074E+01      0.1158834985E+02
          0                 2           2             5    8     1      -0.1165374503E-01       5    8    1        -0.6529798460E+00      0.1158626760E+01
          0                 3           2             5    8     1       0.7930025799E-03       5    8    1         0.4567509022E-01      0.8108451400E-01
          0                 4           1             5    8     1      -0.3151661475E-04       5    8    1        -0.1865853455E-02      0.3315059397E-02

    ------------------------------------------------
       NWT REQUIRED            4 OUTER ITERATIONS 
       AND A TOTAL OF          7 INNER ITERATIONS.
    ------------------------------------------------

 NO OUTPUT CONTROL FOR STRESS PERIOD   10   TIME STEP    7
 
 SOLVING FOR HEAD 
                                                   Max.-Head-Change                         Max.-Flux-Residual
  Residual-Control   Outer-Iter.   Inner-Iter.     Column Row Layer    Maximum-Head-Change  Column Row Layer    Maximum-Flux-Residual          L2-NORM 
          0                 1           2             5    8     1       0.1143791444E+00       5    8    1         0.6228782162E+01      0.1124092986E+02
          0                 2           2             5    8     1       0.2533891552E-01       5    8    1         0.1407133393E+01      0.1689846058E+01
          0                 3           2             5    8     1       0.6644512337E-02       5    8    1         0.3661361296E+00      0.3720176065E+00
          0                 4           1             5    8     1       0.1742370957E-02       5    8    1         0.9618303014E-01      0.9621703005E-01
          0                 5           1             5    8     1       0.4568971365E-03       5    8    1         0.2521486737E-01      0.2521565803E-01
          0                 6           1             5    8     1       0.1198109043E-03       5    8    1         0.6612268152E-02      0.6612388324E-02
          0                 7           1             5    8     1       0.3141769245E-04       5    8    1         0.1733911583E-02      0.1733945066E-02

    ------------------------------------------------
       NWT REQUIRED            7 OUTER ITERATIONS 
       AND A TOTAL OF         10 INNER ITERATIONS.
    ------------------------------------------------

 NO OUTPUT CONTROL FOR STRESS PERIOD   10   TIME STEP    8
 
 SOLVING FOR HEAD 
                                                   Max.-Head-Change                         Max.-Flux-Residual
  Residual-Control   Outer-Iter.   Inner-Iter.     Column Row Layer    Maximum-Head-Change  Column Row Layer    Maximum-Flux-Residual          L2-NORM 
          0                 1           2             5    8     1       0.1063970990E+00       5    8    1         0.5784718672E+01      0.1084793556E+02
          0                 2           2             5    8     1       0.2284049093E-01       5    8    1         0.1269598355E+01      0.1566519328E+01
          0                 3           2             5    8     1      -0.2220653824E-02       5    8    1        -0.1266667157E+00      0.1421921857E+00
          0                 4           1             5    8     1       0.1511093632E-03       5    8    1         0.8844622182E-02      0.9242086930E-02
          0                 5           1             5    8     1      -0.6005597886E-05       5    8    1        -0.3606920250E-03      0.3626232753E-03

    ------------------------------------------------
       NWT REQUIRED            5 OUTER ITERATIONS 
       AND A TOTAL OF          8 INNER ITERATIONS.
    ------------------------------------------------

 NO OUTPUT CONTROL FOR STRESS PERIOD   10   TIME STEP    9
 
 SOLVING FOR HEAD 
                                                   Max.-Head-Change                         Max.-Flux-Residual
  Residual-Control   Outer-Iter.   Inner-Iter.     Column Row Layer    Maximum-Head-Change  Column Row Layer    Maximum-Flux-Residual          L2-NORM 
          0                 1           2             4    8     1       0.1503317102E+00       4    8    1         0.8055956291E+01      0.1272743441E+02
          0                 2           2             4    8     1      -0.1461586143E-01       4    8    1        -0.8051976215E+00      0.1272347272E+01
          0                 3           2             4    8     1       0.9945455656E-03       4    8    1         0.5632177559E-01      0.8902543282E-01
          0                 4           1             4    8     1      -0.3952531637E-04       4    8    1        -0.2300729385E-02      0.3638524447E-02

    ------------------------------------------------
       NWT REQUIRED            4 OUTER ITERATIONS 
       AND A TOTAL OF          7 INNER ITERATIONS.
    ------------------------------------------------

 NO OUTPUT CONTROL FOR STRESS PERIOD   10   TIME STEP   10
 
 SOLVING FOR HEAD 
                                                   Max.-Head-Change                         Max.-Flux-Residual
  Residual-Control   Outer-Iter.   Inner-Iter.     Column Row Layer    Maximum-Head-Change  Column Row Layer    Maximum-Flux-Residual          L2-NORM 
          0                 1           2             5    7     1       0.1489710318E+00       5    7    1         0.8061982884E+01      0.1440343406E+02
          0                 2           2             5    7     1      -0.1448387533E-01       5    7    1        -0.8058174205E+00      0.1439780947E+01
          0                 3           2             5    7     1       0.9855750660E-03       5    7    1         0.5636541247E-01      0.1007281889E+00
          0                 4           1             5    7     1      -0.3916964508E-04       5    7    1        -0.2302540307E-02      0.4115972605E-02

    ------------------------------------------------
       NWT REQUIRED            4 OUTER ITERATIONS 
       AND A TOTAL OF          7 INNER ITERATIONS.
    ------------------------------------------------

 NO OUTPUT CONTROL FOR STRESS PERIOD   10   TIME STEP   11
 
 SOLVING FOR HEAD 
                                                   Max.-Head-Change                         Max.-Flux-Residual
  Residual-Control   Outer-Iter.   Inner-Iter.     Column Row Layer    Maximum-Head-Change  Column Row Layer    Maximum-Flux-Residual          L2-NORM 
          0                 1           2             5    7     1       0.1470768779E+00       5    7    1         0.7887428194E+01      0.1560153880E+02
          0                 2           2             5    6     1      -0.1296042251E-01       5    6    1        -0.7295960044E+00      0.1208537059E+01
          0                 3           2             4    8     1       0.2071867543E-02       4    8    1         0.1117491967E+00      0.1562177820E+00
          0                 4           2             4    8     1       0.5559564529E-03       4    8    1         0.3020642565E-01      0.3704602226E-01
          0                 5           2             4    8     1       0.1491802063E-03       4    8    1         0.8096990531E-02      0.1007897665E-01
          0                 6           1             4    8     1       0.4002887036E-04       4    8    1         0.2172736478E-02      0.2754019169E-02

    ------------------------------------------------
       NWT REQUIRED            6 OUTER ITERATIONS 
       AND A TOTAL OF         11 INNER ITERATIONS.
    ------------------------------------------------

 NO OUTPUT CONTROL FOR STRESS PERIOD   10   TIME STEP   12
 
 SOLVING FOR HEAD 
                                                   Max.-Head-Change                         Max.-Flux-Residual
  Residual-Control   Outer-Iter.   Inner-Iter.     Column Row Layer    Maximum-Head-Change  Column Row Layer    Maximum-Flux-Residual          L2-NORM 
          0                 1           2             5    7     1       0.1422380009E+00       5    7    1         0.7619899303E+01      0.1521030248E+02
          0                 2           2             5    7     1       0.3730014359E-01       5    7    1         0.2081941077E+01      0.3105396451E+01
          0                 3           2             5    7     1       0.9778878804E-02       5    7    1         0.5382102097E+00      0.5718729448E+00
          0                 4           2             5    7     1       0.2562958529E-02       5    7    1         0.1415688620E+00      0.1426983708E+00
          0                 5           2             5    7     1       0.6717291238E-03       5    7    1         0.3708408012E-01      0.3710592256E-01
          0                 6           2             5    7     1       0.1760544044E-03       5    7    1         0.9720169225E-02      0.9720422662E-02
          0                 7           1             5    7     1       0.4614234085E-04       5    7    1         0.2547546278E-02      0.2547583022E-02

    ------------------------------------------------
       NWT REQUIRED            7 OUTER ITERATIONS 
       AND A TOTAL OF         13 INNER ITERATIONS.
    ------------------------------------------------

 NO OUTPUT CONTROL FOR STRESS PERIOD   10   TIME STEP   13
 
 SOLVING FOR HEAD 
                                                   Max.-Head-Change                         Max.-Flux-Residual
  Residual-Control   Outer-Iter.   Inner-Iter.     Column Row Layer    Maximum-Head-Change  Column Row Layer    Maximum-Flux-Residual          L2-NORM 
          0                 1           2             5    7     1       0.1340564079E+00       5    7    1         0.7166752778E+01      0.1470167527E+02
          0                 2           2             4    8     1      -0.1286823686E-01       4    8    1        -0.7069197437E+00      0.1349846157E+01
          0                 3           2             4    8     1       0.8756272617E-03       4    8    1         0.4944738838E-01      0.9443458874E-01
          0                 4           1             4    8     1      -0.3479919264E-04       4    8    1        -0.2019905237E-02      0.3858695031E-02

    ------------------------------------------------
       NWT REQUIRED            4 OUTER ITERATIONS 
       AND A TOTAL OF          7 INNER ITERATIONS.
    ------------------------------------------------

 NO OUTPUT CONTROL FOR STRESS PERIOD   10   TIME STEP   14
 
 SOLVING FOR HEAD 
                                                   Max.-Head-Change                         Max.-Flux-Residual
  Residual-Control   Outer-Iter.   Inner-Iter.     Column Row Layer    Maximum-Head-Change  Column Row Layer    Maximum-Flux-Residual          L2-NORM 
          0                 1           2             5    7     1       0.1301999861E+00       5    7    1         0.6949504761E+01      0.1445234962E+02
          0                 2           2             4    7     1       0.2253427458E-01       4    7    1         0.1248855527E+01      0.1964035195E+01
          0                 3           2             4    7     1       0.6025881790E-02       4    7    1         0.3263198057E+00      0.4308658599E+00
          0                 4           2             4    7     1       0.1611352722E-02       4    7    1         0.8774009771E-01      0.1132974346E+00
          0                 5           1             4    7     1       0.4308773026E-03       4    7    1         0.2344235342E-01      0.3011650042E-01
          0                 6           1             4    7     1       0.1152152068E-03       4    7    1         0.6269319240E-02      0.8017218095E-02
          0                 7           1             4    7     1       0.3080768075E-04       4    7    1         0.1676358492E-02      0.2134965076E-02

    ------------------------------------------------
       NWT REQUIRED            7 OUTER ITERATIONS 
       AND A TOTAL OF         11 INNER ITERATIONS.
    ------------------------------------------------

 NO OUTPUT CONTROL FOR STRESS PERIOD   10   TIME STEP   15
 
 SOLVING FOR HEAD 
                                                   Max.-Head-Change                         Max.-Flux-Residual
  Residual-Control   Outer-Iter.   Inner-Iter.     Column Row Layer    Maximum-Head-Change  Column Row Layer    Maximum-Flux-Residual          L2-NORM 
          0                 1           2             4    7     1       0.1576843901E+00       4    7    1         0.8355126044E+01      0.1580535589E+02
          0                 2           2             5    6     1       0.3104426444E-01       5    6    1         0.1725986392E+01      0.2552890478E+01
          0                 3           2             5    6     1       0.8145061494E-02       5    6    1         0.4484455582E+00      0.5735290454E+00
          0                 4           2             5    6     1       0.2137030831E-02       5    6    1         0.1179275252E+00      0.1482349012E+00
          0                 5           2             5    6     1       0.5606959492E-03       5    6    1         0.3093104716E-01      0.3884241665E-01
          0                 6           2             5    6     1       0.1471106686E-03       5    6    1         0.8115746125E-02      0.1019052133E-01
          0                 7           1             5    6     1       0.3859765694E-04       5    6    1         0.2129333926E-02      0.2673512365E-02

    ------------------------------------------------
       NWT REQUIRED            7 OUTER ITERATIONS 
       AND A TOTAL OF         13 INNER ITERATIONS.
    ------------------------------------------------

 NO OUTPUT CONTROL FOR STRESS PERIOD   10   TIME STEP   16
 
 SOLVING FOR HEAD 
                                                   Max.-Head-Change                         Max.-Flux-Residual
  Residual-Control   Outer-Iter.   Inner-Iter.     Column Row Layer    Maximum-Head-Change  Column Row Layer    Maximum-Flux-Residual          L2-NORM 
          0                 1           2             4    7     1       0.1533973383E+00       4    7    1         0.8121152682E+01      0.1539340128E+02
          0                 2           2             4    7     1      -0.1489317633E-01       4    7    1        -0.8117055978E+00      0.1441688358E+01
          0                 3           2             4    7     1       0.1002880576E-02       4    7    1         0.5677655205E-01      0.9741188870E-01
          0                 4           1             5    6     1       0.5557030471E-04       5    6    1         0.3283813809E-02      0.4805335122E-02

    ------------------------------------------------
       NWT REQUIRED            4 OUTER ITERATIONS 
       AND A TOTAL OF          7 INNER ITERATIONS.
    ------------------------------------------------

 NO OUTPUT CONTROL FOR STRESS PERIOD   10   TIME STEP   17
 
 SOLVING FOR HEAD 
                                                   Max.-Head-Change                         Max.-Flux-Residual
  Residual-Control   Outer-Iter.   Inner-Iter.     Column Row Layer    Maximum-Head-Change  Column Row Layer    Maximum-Flux-Residual          L2-NORM 
          0                 1           2             4    7     1       0.1505874126E+00       4    7    1         0.7970633298E+01      0.1506112764E+02
          0                 2           2             4    8     1       0.2985802146E-01       4    8    1         0.1635525718E+01      0.2353242000E+01
          0                 3           2             4    8     1       0.8017520443E-02       4    8    1         0.4338637301E+00      0.5392640573E+00
          0                 4           2             4    8     1       0.2152867918E-02       4    8    1         0.1168315705E+00      0.1425516891E+00
          0                 5           2             4    8     1       0.5780836092E-03       4    8    1         0.3135830709E-01      0.3795936378E-01
          0                 6           2             4    8     1       0.1552244472E-03       4    8    1         0.8420792141E-02      0.1011886579E-01
          0                 7           1             4    8     1       0.4167981534E-04       4    8    1         0.2261090734E-02      0.2697855393E-02

    ------------------------------------------------
       NWT REQUIRED            7 OUTER ITERATIONS 
       AND A TOTAL OF         13 INNER ITERATIONS.
    ------------------------------------------------

 NO OUTPUT CONTROL FOR STRESS PERIOD   10   TIME STEP   18
 
 SOLVING FOR HEAD 
                                                   Max.-Head-Change                         Max.-Flux-Residual
  Residual-Control   Outer-Iter.   Inner-Iter.     Column Row Layer    Maximum-Head-Change  Column Row Layer    Maximum-Flux-Residual          L2-NORM 
          0                 1           2             4    7     1       0.1502520327E+00       4    7    1         0.7897240970E+01      0.1624588394E+02
          0                 2           2             5    7     1       0.2598229149E-01       5    7    1         0.1456733613E+01      0.2054475830E+01
          0                 3           2             5    7     1      -0.2568145633E-02       5    7    1        -0.1449815804E+00      0.2196590306E+00
          0                 4           2             4    7     1      -0.6283450570E-03       4    7    1        -0.3536011939E-01      0.3737276031E-01
          0                 5           1             4    7     1      -0.1805093191E-03       4    7    1        -0.1009150746E-01      0.1010370529E-01
          0                 6           1             4    7     1      -0.5185510018E-04       4    7    1        -0.2901529502E-02      0.2901549074E-02

    ------------------------------------------------
       NWT REQUIRED            6 OUTER ITERATIONS 
       AND A TOTAL OF         10 INNER ITERATIONS.
    ------------------------------------------------

 NO OUTPUT CONTROL FOR STRESS PERIOD   10   TIME STEP   19
 
 SOLVING FOR HEAD 
                                                   Max.-Head-Change                         Max.-Flux-Residual
  Residual-Control   Outer-Iter.   Inner-Iter.     Column Row Layer    Maximum-Head-Change  Column Row Layer    Maximum-Flux-Residual          L2-NORM 
          0                 1           2             4    7     1       0.1492631419E+00       4    7    1         0.7849165030E+01      0.1599206491E+02
          0                 2           2             4    7     1       0.4046133836E-01       4    7    1         0.2199489771E+01      0.2868558422E+01
          0                 3           2             4    7     1       0.1095231738E-01       4    7    1         0.5895287100E+00      0.7106662730E+00
          0                 4           2             4    7     1       0.2965149949E-02       4    7    1         0.1599454300E+00      0.1922579021E+00
          0                 5           2             4    7     1       0.8028975902E-03       4    7    1         0.4328947565E-01      0.5224323145E-01
          0                 6           2             4    7     1       0.2174425279E-03       4    7    1         0.1172298999E-01      0.1420329589E-01
          0                 7           1             4    7     1       0.5889759613E-04       4    7    1         0.3174959497E-02      0.3861535896E-02

    ------------------------------------------------
       NWT REQUIRED            7 OUTER ITERATIONS 
       AND A TOTAL OF         13 INNER ITERATIONS.
    ------------------------------------------------

 NO OUTPUT CONTROL FOR STRESS PERIOD   10   TIME STEP   20
 
 SOLVING FOR HEAD 
                                                   Max.-Head-Change                         Max.-Flux-Residual
  Residual-Control   Outer-Iter.   Inner-Iter.     Column Row Layer    Maximum-Head-Change  Column Row Layer    Maximum-Flux-Residual          L2-NORM 
          0                 1           2             4    7     1       0.1447486038E+00       4    7    1         0.7608088771E+01      0.1564173651E+02
          0                 2           2             4    6     1       0.1667937319E-01       4    6    1         0.9231985845E+00      0.1535737752E+01
          0                 3           2             4    6     1      -0.1621621715E-02       4    6    1        -0.9188815753E-01      0.1259585091E+00
          0                 4           2             4    6     1       0.1103470038E-03       4    6    1         0.6401443795E-02      0.7319719791E-02
          0                 5           1             4    6     1      -0.4385534267E-05       4    6    1        -0.2604706256E-03      0.2647354339E-03

    ------------------------------------------------
       NWT REQUIRED            5 OUTER ITERATIONS 
       AND A TOTAL OF          9 INNER ITERATIONS.
    ------------------------------------------------

 NO OUTPUT CONTROL FOR STRESS PERIOD   10   TIME STEP   21
 
 SOLVING FOR HEAD 
                                                   Max.-Head-Change                         Max.-Flux-Residual
  Residual-Control   Outer-Iter.   Inner-Iter.     Column Row Layer    Maximum-Head-Change  Column Row Layer    Maximum-Flux-Residual          L2-NORM 
          0                 1           2             4    7     1       0.1431555836E+00       4    7    1         0.7527344665E+01      0.1533881460E+02
          0                 2           2             4    7     1      -0.1391096834E-01       4    7    1        -0.7523461641E+00      0.1472726804E+01
          0                 3           2             5    6     1       0.1378923520E-02       5    6    1         0.7465972640E-01      0.1254559628E+00
          0                 4           2             5    6     1       0.3616878694E-03       5    6    1         0.2001578572E-01      0.2042287271E-01
          0                 5           1             5    6     1       0.9486933497E-04       5    6    1         0.5233711131E-02      0.5234391123E-02

    ------------------------------------------------
       NWT REQUIRED            5 OUTER ITERATIONS 
       AND A TOTAL OF          9 INNER ITERATIONS.
    ------------------------------------------------

 NO OUTPUT CONTROL FOR STRESS PERIOD   10   TIME STEP   22
 
 SOLVING FOR HEAD 
                                                   Max.-Head-Change                         Max.-Flux-Residual
  Residual-Control   Outer-Iter.   Inner-Iter.     Column Row Layer    Maximum-Head-Change  Column Row Layer    Maximum-Flux-Residual          L2-NORM 
          0                 1           2             4    7     1       0.1414402416E+00       4    7    1         0.7438439877E+01      0.1505902079E+02
          0                 2           2             5    6     1       0.2522465787E-01       5    6    1         0.1412275795E+01      0.1967655487E+01
          0                 3           2             5    6     1       0.6616472471E-02       5    6    1         0.3636993824E+00      0.3794157126E+00
          0                 4           2             5    6     1       0.1735530112E-02       5    6    1         0.9582312625E-01      0.9687141293E-01
          0                 5           2             5    6     1       0.4552371914E-03       5    6    1         0.2511790508E-01      0.2537574282E-01
          0                 6           2             5    6     1       0.1194107722E-03       5    6    1         0.6588709007E-02      0.6656585921E-02
          0                 7           1             5    6     1       0.3132198959E-04       5    6    1         0.1728237239E-02      0.1746108716E-02

    ------------------------------------------------
       NWT REQUIRED            7 OUTER ITERATIONS 
       AND A TOTAL OF         13 INNER ITERATIONS.
    ------------------------------------------------

 NO OUTPUT CONTROL FOR STRESS PERIOD   10   TIME STEP   23
 
 SOLVING FOR HEAD 
                                                   Max.-Head-Change                         Max.-Flux-Residual
  Residual-Control   Outer-Iter.   Inner-Iter.     Column Row Layer    Maximum-Head-Change  Column Row Layer    Maximum-Flux-Residual          L2-NORM 
          0                 1           2             4    7     1       0.1397590760E+00       4    7    1         0.7350335606E+01      0.1477556740E+02
          0                 2           2             5    8     1       0.2105158121E-01       5    8    1         0.1134221452E+01      0.2007534872E+01
          0                 3           2             5    8     1       0.5709897729E-02       5    8    1         0.3074936219E+00      0.4925659254E+00
          0                 4           2             5    8     1       0.1548584221E-02       5    8    1         0.8340977046E-01      0.1317090662E+00
          0                 5           2             5    8     1       0.4199644916E-03       5    8    1         0.2262055921E-01      0.3562511915E-01
          0                 6           1             5    8     1       0.1138858824E-03       5    8    1         0.6134467048E-02      0.9641199635E-02
          0                 7           1             5    8     1       0.3088267580E-04       5    8    1         0.1663521290E-02      0.2610101490E-02

    ------------------------------------------------
       NWT REQUIRED            7 OUTER ITERATIONS 
       AND A TOTAL OF         12 INNER ITERATIONS.
    ------------------------------------------------

 NO OUTPUT CONTROL FOR STRESS PERIOD   10   TIME STEP   24
 
 SOLVING FOR HEAD 
                                                   Max.-Head-Change                         Max.-Flux-Residual
  Residual-Control   Outer-Iter.   Inner-Iter.     Column Row Layer    Maximum-Head-Change  Column Row Layer    Maximum-Flux-Residual          L2-NORM 
          0                 1           2             4    7     1       0.1388304885E+00       4    7    1         0.7305976017E+01      0.1447909895E+02
          0                 2           2             4    7     1       0.3848508968E-01       4    7    1         0.2045214118E+01      0.3288673677E+01
          0                 3           2             4    7     1       0.1054098666E-01       4    7    1         0.5649481304E+00      0.7019079693E+00
          0                 4           2             4    7     1       0.2828288889E-02       4    7    1         0.1542661198E+00      0.1624770355E+00
          0                 5           2             4    7     1       0.7591276787E-03       4    7    1         0.4114305524E-01      0.4225365832E-01
          0                 6           1             4    7     1       0.2038235387E-03       4    7    1         0.1105968666E-01      0.1137509274E-01
          0                 7           1             4    7     1       0.5474443022E-04       4    7    1         0.2969127426E-02      0.3066317374E-02

    ------------------------------------------------
       NWT REQUIRED            7 OUTER ITERATIONS 
       AND A TOTAL OF         12 INNER ITERATIONS.
    ------------------------------------------------

 NO OUTPUT CONTROL FOR STRESS PERIOD   10   TIME STEP   25
 
 SOLVING FOR HEAD 
                                                   Max.-Head-Change                         Max.-Flux-Residual
  Residual-Control   Outer-Iter.   Inner-Iter.     Column Row Layer    Maximum-Head-Change  Column Row Layer    Maximum-Flux-Residual          L2-NORM 
          0                 1           2             4    7     1       0.1353826649E+00       4    7    1         0.7124308656E+01      0.1415925909E+02
          0                 2           2             4    6     1       0.3278768529E-01       4    6    1         0.1798660126E+01      0.2085189978E+01
          0                 3           2             4    6     1       0.8739887574E-02       4    6    1         0.4759807171E+00      0.4817469461E+00
          0                 4           2             4    6     1       0.2329712322E-02       4    6    1         0.1270935959E+00      0.1271247294E+00
          0                 5           2             4    6     1       0.6210103939E-03       4    6    1         0.3386903074E-01      0.3386963719E-01
          0                 6           1             4    6     1      -0.1455696984E-04       4    6    1        -0.8170987417E-03      0.8179050288E-03

    ------------------------------------------------
       NWT REQUIRED            6 OUTER ITERATIONS 
       AND A TOTAL OF         11 INNER ITERATIONS.
    ------------------------------------------------

 NO OUTPUT CONTROL FOR STRESS PERIOD   10   TIME STEP   26
 
 SOLVING FOR HEAD 
                                                   Max.-Head-Change                         Max.-Flux-Residual
  Residual-Control   Outer-Iter.   Inner-Iter.     Column Row Layer    Maximum-Head-Change  Column Row Layer    Maximum-Flux-Residual          L2-NORM 
          0                 1           2             4    7     1       0.1340076763E+00       4    7    1         0.7055586651E+01      0.1389085089E+02
          0                 2           2             4    7     1      -0.1302853666E-01       4    7    1        -0.7051972411E+00      0.1388383794E+01
          0                 3           2             4    7     1       0.8865220720E-03       4    7    1         0.4932636595E-01      0.9711716464E-01
          0                 4           1             4    7     1      -0.3523134516E-04       4    7    1        -0.2014924308E-02      0.3967378601E-02

    ------------------------------------------------
       NWT REQUIRED            4 OUTER ITERATIONS 
       AND A TOTAL OF          7 INNER ITERATIONS.
    ------------------------------------------------

 NO OUTPUT CONTROL FOR STRESS PERIOD   10   TIME STEP   27
 
 SOLVING FOR HEAD 
                                                   Max.-Head-Change                         Max.-Flux-Residual
  Residual-Control   Outer-Iter.   Inner-Iter.     Column Row Layer    Maximum-Head-Change  Column Row Layer    Maximum-Flux-Residual          L2-NORM 
          0                 1           2             4    7     1       0.1321934924E+00       4    7    1         0.6962732203E+01      0.1317161002E+02
          0                 2           2             4    7     1      -0.1285216478E-01       4    7    1        -0.6959170988E+00      0.1316501725E+01
          0                 3           2             4    7     1       0.8745212526E-03       4    7    1         0.4867725739E-01      0.9208995308E-01
          0                 4           1             4    7     1      -0.3475444611E-04       4    7    1        -0.1988409960E-02      0.3762068854E-02

    ------------------------------------------------
       NWT REQUIRED            4 OUTER ITERATIONS 
       AND A TOTAL OF          7 INNER ITERATIONS.
    ------------------------------------------------

 NO OUTPUT CONTROL FOR STRESS PERIOD   10   TIME STEP   28
 
 SOLVING FOR HEAD 
                                                   Max.-Head-Change                         Max.-Flux-Residual
  Residual-Control   Outer-Iter.   Inner-Iter.     Column Row Layer    Maximum-Head-Change  Column Row Layer    Maximum-Flux-Residual          L2-NORM 
          0                 1           2             4    7     1       0.1303595964E+00       4    7    1         0.6868475275E+01      0.1289253223E+02
          0                 2           2             4    7     1      -0.1267387624E-01       4    7    1        -0.6864966533E+00      0.1288608467E+01
          0                 3           2             4    7     1       0.8623898207E-03       4    7    1         0.4801833411E-01      0.9013872382E-01
          0                 4           1             4    7     1      -0.3427234491E-04       4    7    1        -0.1961494538E-02      0.3682357214E-02

    ------------------------------------------------
       NWT REQUIRED            4 OUTER ITERATIONS 
       AND A TOTAL OF          7 INNER ITERATIONS.
    ------------------------------------------------

 NO OUTPUT CONTROL FOR STRESS PERIOD   10   TIME STEP   29
 
 SOLVING FOR HEAD 
                                                   Max.-Head-Change                         Max.-Flux-Residual
  Residual-Control   Outer-Iter.   Inner-Iter.     Column Row Layer    Maximum-Head-Change  Column Row Layer    Maximum-Flux-Residual          L2-NORM 
          0                 1           2             4    7     1       0.1285124894E+00       4    7    1         0.6773196128E+01      0.1262857827E+02
          0                 2           2             4    7     1       0.2235728505E-01       4    7    1         0.1239234787E+01      0.1589184972E+01
          0                 3           2             4    7     1       0.5975787233E-02       4    7    1         0.3237370958E+00      0.3346699450E+00
          0                 4           2             4    7     1       0.1597241718E-02       4    7    1         0.8700198371E-01      0.8805722946E-01
          0                 5           1             4    7     1       0.4269187378E-03       4    7    1         0.2323501074E-01      0.2349996356E-01
          0                 6           1             4    7     1       0.1141088316E-03       4    7    1         0.6210878054E-02      0.6279609553E-02
          0                 7           1             4    7     1       0.3049949842E-04       4    7    1         0.1660047650E-02      0.1677895742E-02

    ------------------------------------------------
       NWT REQUIRED            7 OUTER ITERATIONS 
       AND A TOTAL OF         11 INNER ITERATIONS.
    ------------------------------------------------

 NO OUTPUT CONTROL FOR STRESS PERIOD   10   TIME STEP   30



 STREAM LISTING     PERIOD     10   STEP       30

 LAYER ROW COL. STREAM  RCH.  FLOW INTO     FLOW TO   FLOW OUT OF   OVRLND.     DIRECT     STREAM       STREAM     STREAM     STREAM   STREAMBED  STREAMBED
                SEG.NO.  NO.  STRM. RCH.    AQUIFER    STRM. RCH.    RUNOFF     PRECIP       ET          HEAD       DEPTH      WIDTH   CONDCTNC.   GRADIENT

   1    1    1     1     1    4.7000E+01  3.2684E-01   4.6673E+01  0.000E+00  0.000E+00  0.000E+00  1.09443E+03  1.380E+00  1.658E+01  7.462E-02  1.460E+00
   1    2    2     1     2    4.6673E+01  5.0637E-01   4.6166E+01  0.000E+00  0.000E+00  0.000E+00  1.08944E+03  1.377E+00  1.653E+01  1.157E-01  1.459E+00
   1    3    3     1     3    4.6166E+01  4.3205E-01   4.5734E+01  0.000E+00  0.000E+00  0.000E+00  1.08379E+03  1.374E+00  1.646E+01  9.878E-02  1.458E+00
   1    3    4     1     4    4.5734E+01  3.9802E-01   4.5336E+01  0.000E+00  0.000E+00  0.000E+00  1.07878E+03  1.371E+00  1.641E+01  9.105E-02  1.457E+00
   1    4    5     2     1    4.3336E+01  3.6469E-01   4.2972E+01  0.000E+00  0.000E+00  0.000E+00  1.07361E+03  1.676E+00  1.200E+01  7.800E-02  1.559E+00
   1    5    6     2     2    4.2972E+01  2.8008E-01   4.2692E+01  0.000E+00  0.000E+00  0.000E+00  1.06818E+03  1.668E+00  1.200E+01  6.000E-02  1.556E+00
   1    6    6     2     3    4.2692E+01  2.7969E-01   4.2412E+01  0.000E+00  0.000E+00  0.000E+00  1.06345E+03  1.661E+00  1.200E+01  6.000E-02  1.554E+00
   1    7    6     2     4    4.2412E+01  2.7930E-01   4.2133E+01  0.000E+00  0.000E+00  0.000E+00  1.05873E+03  1.655E+00  1.200E+01  6.000E-02  1.552E+00
   1    8    6     2     5    4.2133E+01  2.7890E-01   4.1854E+01  0.000E+00  0.000E+00  0.000E+00  1.05401E+03  1.648E+00  1.200E+01  6.000E-02  1.549E+00
   1    3    5     3     1    2.0000E+00  2.8252E-01   1.7175E+00  0.000E+00  0.000E+00  0.000E+00  1.07555E+03  1.909E+00  9.636E+00  7.227E-02  1.955E+00
   1    3    6     3     2    1.7175E+00  2.4905E-01   1.4684E+00  0.000E+00  0.000E+00  0.000E+00  1.07264E+03  1.727E+00  8.909E+00  6.682E-02  1.864E+00
   1    3    7     3     3    1.4684E+00  1.9718E-01   1.2712E+00  0.000E+00  0.000E+00  0.000E+00  1.06987E+03  1.555E+00  8.218E+00  5.547E-02  1.777E+00
   1    4    8     3     4    1.2712E+00  2.2567E-01   1.0456E+00  0.000E+00  0.000E+00  0.000E+00  1.06682E+03  1.364E+00  7.455E+00  6.709E-02  1.682E+00
   1    5    8     3     5    1.0456E+00  1.5790E-01   8.8768E-01  0.000E+00  0.000E+00  0.000E+00  1.06362E+03  1.164E+00  6.655E+00  4.991E-02  1.582E+00
   1    6    8     3     6    8.8768E-01  5.5980E-02   8.3170E-01  0.000E+00  0.000E+00  0.000E+00  1.06158E+03  1.036E+00  6.145E+00  1.844E-02  1.518E+00
   1    5   10     4     1    1.0000E+01  9.0919E-02   9.9091E+00  0.000E+00  0.000E+00  0.000E+00  1.07836E+03  6.368E-01  1.000E+01  2.500E-02  1.212E+00
   1    5    9     4     2    9.9091E+00  1.8158E-01   9.7275E+00  0.000E+00  0.000E+00  0.000E+00  1.07154E+03  6.315E-01  1.000E+01  5.000E-02  1.211E+00
   1    6    8     4     3    9.7275E+00  1.2689E-01   9.6006E+00  0.000E+00  0.000E+00  0.000E+00  1.06381E+03  6.256E-01  1.000E+01  3.500E-02  1.209E+00
   1    6    8     5     1    1.0432E+01  2.2686E-01   1.0205E+01  0.000E+00  0.000E+00  0.000E+00  1.05868E+03  6.790E-01  1.542E+01  6.166E-02  1.226E+00
   1    7    7     5     2    1.0205E+01  2.7894E-01   9.9265E+00  0.000E+00  0.000E+00  0.000E+00  1.05417E+03  6.732E-01  1.519E+01  7.594E-02  1.224E+00
   1    8    7     5     3    9.9265E+00  1.9221E-01   9.7343E+00  0.000E+00  0.000E+00  0.000E+00  1.04992E+03  6.676E-01  1.497E+01  5.241E-02  1.223E+00
   1    8    6     5     4    9.7343E+00  1.3577E-01   9.5985E+00  0.000E+00  0.000E+00  0.000E+00  1.04691E+03  6.637E-01  1.482E+01  3.706E-02  1.221E+00
   1    9    6     6     1    5.1452E+01  2.9278E-01   5.1159E+01  0.000E+00  0.000E+00  0.000E+00  1.04461E+03  1.880E+00  1.200E+01  6.000E-02  1.627E+00
   1   10    7     6     2    5.1159E+01  2.9239E-01   5.0867E+01  0.000E+00  0.000E+00  0.000E+00  1.04005E+03  1.873E+00  1.200E+01  6.000E-02  1.624E+00
   1   11    7     6     3    5.0867E+01  2.9200E-01   5.0575E+01  0.000E+00  0.000E+00  0.000E+00  1.03550E+03  1.867E+00  1.200E+01  6.000E-02  1.622E+00
   1   12    7     6     4    5.0575E+01  2.9162E-01   5.0283E+01  0.000E+00  0.000E+00  0.000E+00  1.03095E+03  1.860E+00  1.200E+01  6.000E-02  1.620E+00
   1   13    7     6     5    5.0283E+01  1.2627E-02   5.0271E+01  0.000E+00  0.000E+00  0.000E+00  1.02777E+03  1.857E+00  1.200E+01  2.400E-02  1.754E-01
   1   14    9     7     1    1.5000E+02  1.3308E+00   1.4867E+02  0.000E+00  0.000E+00  0.000E+00  1.03987E+03  2.288E+00  5.529E+01  5.593E-01  7.931E-01
   1   13    8     7     2    1.4867E+02  1.7940E+00   1.4688E+02  0.000E+00  0.000E+00  0.000E+00  1.03478E+03  2.279E+00  5.526E+01  6.148E-01  9.727E-01
   1   13    7     7     3    1.4688E+02  1.3685E+00   1.4551E+02  0.000E+00  0.000E+00  0.000E+00  1.02969E+03  2.271E+00  5.522E+01  5.585E-01  8.168E-01
   1   13    6     8     1    1.9578E+02  9.1878E-01   1.9486E+02  0.000E+00  0.000E+00  0.000E+00  1.02498E+03  3.110E+00  4.509E+01  4.595E-01  6.665E-01
   1   13    5     8     2    1.9486E+02  1.4362E-01   1.9472E+02  0.000E+00  0.000E+00  0.000E+00  1.01873E+03  3.107E+00  4.505E+01  4.591E-01  1.043E-01
   1   13    4     8     3    1.9472E+02 -2.4950E+00   1.9721E+02  0.000E+00  0.000E+00  0.000E+00  1.01249E+03  3.114E+00  4.515E+01  4.601E+00 -1.808E-01
   1   13    3     8     4    1.9721E+02 -3.6164E+00   2.0083E+02  0.000E+00  0.000E+00  0.000E+00  1.00626E+03  3.132E+00  4.541E+01  4.628E+00 -2.605E-01
   1   13    2     8     5    2.0083E+02 -2.5915E+00   2.0342E+02  0.000E+00  0.000E+00  0.000E+00  1.00003E+03  3.150E+00  4.568E+01  4.655E+00 -1.856E-01
   1   13    1     8     6    2.0342E+02 -2.0171E+00   2.0544E+02  0.000E+00  0.000E+00  0.000E+00  9.95039E+02  3.164E+00  4.587E+01  2.805E+00 -2.397E-01





UNSATURATED ZONE PACKAGE VOLUMETRIC BUDGET FOR  TIME STEP    30 STRESS PERIOD   10
  ------------------------------------------------------------------------------



     CUMULATIVE VOLUMES      L**3       RATES FOR THIS TIME STEP      L**3/T
     ------------------                 ------------------------

           IN:                                      IN:
           ---                                      ---
        INFILTRATION =   495974221.1032          INFILTRATION =          12.0675

          OUT:                                     OUT:
          ----                                     ----
              UZF ET =   423882157.8900                UZF ET =          12.0675
        UZF RECHARGE =    52299030.5156          UZF RECHARGE =          26.0911

            IN - OUT =    19793032.6976              IN - OUT =         -26.0911

          STORAGE:                                 STORAGE:
          --------                                 --------
      STORAGE CHANGE =    19793025.5682        STORAGE CHANGE =         -26.0911

 PERCENT DISCREPANCY IS DIFFERENCE BETWEEN IN-OUT MINUS CHANGE IN STORAGE
 DIVIDED BY THE AVERAGE OF IN AND OUT TIMES 100

 PERCENT DISCREPANCY =           0.00     PERCENT DISCREPANCY =           0.00






1
  VOLUMETRIC BUDGET FOR AGRICULTURAL FIELDS AT  END OF TIME STEP   30, STRESS PERIOD  10
  ------------------------------------------------------------------------------

     CUMULATIVE VOLUMES      L**3       RATES FOR THIS TIME STEP      L**3/T
     ------------------                 ------------------------

           IN:                                      IN:
           ---                                      ---
               AG WELLS  =   475840128.0000                 AG WELLS  =          11.2200
      DIVERSION SEGMENTS =           0.0000        DIVERSION SEGMENTS =           0.0000
           GW IRRIGATION =           0.0000             GW IRRIGATION =           0.0000
           SW IRRIGATION =           0.0000             SW IRRIGATION =           0.0000
        SYSTEM LOSSES GW =           0.0000          SYSTEM LOSSES GW =           0.0000
        SYSTEM LOSSES SW =           0.0000          SYSTEM LOSSES SW =           0.0000

                TOTAL IN =   475840128.0000                  TOTAL IN =          11.2200

          OUT:                                     OUT:
          ----                                     ----
               AG WELLS  =           0.0000                 AG WELLS  =           0.0000
      DIVERSION SEGMENTS =           0.0000        DIVERSION SEGMENTS =           0.0000
           GW IRRIGATION =   475840128.0000             GW IRRIGATION =          11.2200
           SW IRRIGATION =           0.0000             SW IRRIGATION =           0.0000
        SYSTEM LOSSES GW =           0.0000          SYSTEM LOSSES GW =           0.0000
        SYSTEM LOSSES SW =           0.0000          SYSTEM LOSSES SW =           0.0000

               TOTAL OUT =   475840128.0000                 TOTAL OUT =          11.2200

                IN - OUT =           0.0000                  IN - OUT =           0.0000

     PERCENT DISCREPANCY =           0.00         PERCENT DISCREPANCY =           0.00



1
  VOLUMETRIC BUDGET FOR ENTIRE MODEL AT END OF TIME STEP   30, STRESS PERIOD  10
  ------------------------------------------------------------------------------

     CUMULATIVE VOLUMES      L**3       RATES FOR THIS TIME STEP      L**3/T
     ------------------                 ------------------------

           IN:                                      IN:
           ---                                      ---
             STORAGE     =   512240128.0000               STORAGE     =          16.8789
       CONSTANT HEAD     =           0.0000         CONSTANT HEAD     =           0.0000
     HEAD DEP BOUNDS     =     6781340.0000       HEAD DEP BOUNDS     =           0.2854
      STREAM LEAKAGE     =   302967584.0000        STREAM LEAKAGE     =          12.2846
        UZF RECHARGE     =    52299032.0000          UZF RECHARGE     =          26.0911
               GW ET     =           0.0000                 GW ET     =           0.0000
     SURFACE LEAKAGE     =           0.0000       SURFACE LEAKAGE     =           0.0000
           AG WELLS      =           0.0000             AG WELLS      =           0.0000

                TOTAL IN =   874288064.0000                  TOTAL IN =          55.5400

          OUT:                                     OUT:
          ----                                     ----
             STORAGE     =   136889408.0000               STORAGE     =          33.0448
       CONSTANT HEAD     =           0.0000         CONSTANT HEAD     =           0.0000
     HEAD DEP BOUNDS     =     7020252.5000       HEAD DEP BOUNDS     =           0.2948
      STREAM LEAKAGE     =   240804480.0000        STREAM LEAKAGE     =          10.7200
        UZF RECHARGE     =           0.0000          UZF RECHARGE     =           0.0000
               GW ET     =    13729010.0000                 GW ET     =           0.2599
     SURFACE LEAKAGE     =           0.0000       SURFACE LEAKAGE     =           0.0000
           AG WELLS      =   475840128.0000             AG WELLS      =          11.2200

               TOTAL OUT =   874283264.0000                 TOTAL OUT =          55.5395

                IN - OUT =        4800.0000                  IN - OUT =       5.1880E-04

     PERCENT DISCREPANCY =           0.00         PERCENT DISCREPANCY =           0.00






         TIME SUMMARY AT END OF TIME STEP   30 IN STRESS PERIOD   10
                    SECONDS     MINUTES      HOURS       DAYS        YEARS
                    -----------------------------------------------------------
   TIME STEP LENGTH  87667.      1461.1      24.352      1.0147     2.77799E-03
 STRESS PERIOD TIME 2.63000E+06  43833.      730.56      30.440     8.33397E-02
         TOTAL TIME 2.37564E+07 3.95940E+05  6599.0      274.96     0.75279    
1
1
                            STRESS PERIOD NO.   11, LENGTH =   2630000.    
                            -----------------------------------------------

                              NUMBER OF TIME STEPS =    30

                               MULTIPLIER FOR DELT =     1.000

                            INITIAL TIME STEP SIZE =   87666.66    

 REUSING NON-PARAMETER GHB CELLS FROM LAST STRESS PERIOD

      2 GHB CELLS

 REUSING STREAM SEGMENT DATA FROM LAST STRESS PERIOD



            AREAL INFILTRATION RATE
 READING ON UNIT   19 WITH FORMAT: (FREE)              

            1           2           3           4           5           6           7           8           9          10
 ........................................................................................................................
   1   1.0000E-10  2.0000E-10   0.000       0.000       0.000       0.000       0.000       0.000       0.000       0.000    
   2   2.0000E-10  1.0000E-10  2.0000E-10   0.000       0.000      8.0000E-10  8.0000E-10  5.0000E-10   0.000       0.000    
   3    0.000      5.0000E-10  1.0000E-10  1.0000E-10  8.0000E-10  8.0000E-10  5.0000E-10  5.0000E-10   0.000       0.000    
   4   8.0000E-10  5.0000E-10  1.0000E-10  1.0000E-10  1.0000E-10  1.0000E-10  1.0000E-10  1.0000E-10  2.0000E-10   0.000    
   5   8.0000E-10  5.0000E-10  1.0000E-10  1.0000E-10  1.0000E-10  1.0000E-10  1.0000E-10  1.0000E-10  1.0000E-10  1.0000E-10
   6   8.0000E-10  5.0000E-10  5.0000E-10  2.0000E-10  2.0000E-10  1.0000E-10  1.0000E-10  1.0000E-10  1.0000E-10  5.0000E-10
   7   8.0000E-10  5.0000E-10  5.0000E-10  2.0000E-10  2.0000E-10  1.0000E-10  1.0000E-10  2.0000E-10  2.0000E-10   0.000    
   8    0.000      5.0000E-10  5.0000E-10  2.0000E-10  2.0000E-10  1.0000E-10  1.0000E-10  2.0000E-10  5.0000E-10   0.000    
   9    0.000      5.0000E-10  5.0000E-10  2.0000E-10  2.0000E-10  1.0000E-10  1.0000E-10  2.0000E-10  5.0000E-10   0.000    
  10    0.000      5.0000E-10  5.0000E-10  2.0000E-10  2.0000E-10  1.0000E-10  1.0000E-10  2.0000E-10  5.0000E-10  8.0000E-10
  11    0.000      1.0000E-10  1.0000E-10  1.0000E-10  1.0000E-10  1.0000E-10  1.0000E-10  2.0000E-10  5.0000E-10   0.000    
  12   1.0000E-10  1.0000E-10  1.0000E-10  1.0000E-10  1.0000E-10  1.0000E-10  1.0000E-10  1.0000E-10  2.0000E-10   0.000    
  13   1.0000E-10  1.0000E-10  2.0000E-10  2.0000E-10  2.0000E-10  2.0000E-10  2.0000E-10  1.0000E-10  1.0000E-10   0.000    
  14    0.000      2.0000E-10  5.0000E-10  5.0000E-10  5.0000E-10  5.0000E-10  5.0000E-10  2.0000E-10  1.0000E-10   0.000    
  15    0.000       0.000      8.0000E-10  8.0000E-10  8.0000E-10  8.0000E-10   0.000       0.000       0.000       0.000    

                  ET RATE =  5.000000E-09

 USING ET EXTINCTION DEPTH FROM PREVIOUS STRESS PERIOD. CURRENT PERIOD IS:      11

 USING EXTINCTION WATER CONTENT FROM PREVIOUS STRESS PERIOD. CURRENT PERIOD IS:      11

 USING AIR ENTRY PRESSURE FROM PREVIOUS STRESS PERIOD. CURRENT PERIOD IS:      11

 USING ROOT PRESSURE HEAD FROM PREVIOUS STRESS PERIOD. CURRENT PERIOD IS:      11

 USING ROOT ACTIVITY FROM PREVIOUS STRESS PERIOD. CURRENT PERIOD IS:      11

 PROCESSING AG STRESS PERIOD DATA

 READING AG STRESS PERIOD DATA

 READING IRRIGATION WELL

 END PROCESSING AG STRESS PERIOD DATA OPTIONS
 
 SOLVING FOR HEAD 
                                                   Max.-Head-Change                         Max.-Flux-Residual
  Residual-Control   Outer-Iter.   Inner-Iter.     Column Row Layer    Maximum-Head-Change  Column Row Layer    Maximum-Flux-Residual          L2-NORM 
          0                 1           2             4    7     1       0.1603997797E+00       4    7    1         0.8432268998E+01      0.1649118631E+02
          0                 2           2             5    6     1       0.3121446488E-01       5    6    1         0.1696540499E+01      0.2773660230E+01
          0                 3           2             5    6     1       0.8370644002E-02       5    6    1         0.4544643590E+00      0.6845147590E+00
          0                 4           2             5    6     1       0.2245848968E-02       5    6    1         0.1219036525E+00      0.1809816134E+00
          0                 5           2             5    6     1       0.6028558980E-03       5    6    1         0.3271066557E-01      0.4873718097E-01
          0                 6           2             5    6     1       0.1619014990E-03       5    6    1         0.8781737125E-02      0.1313180110E-01
          0                 7           1             5    6     1       0.4349965918E-04       5    6    1         0.2358699266E-02      0.3539866376E-02

    ------------------------------------------------
       NWT REQUIRED            7 OUTER ITERATIONS 
       AND A TOTAL OF         13 INNER ITERATIONS.
    ------------------------------------------------

 NO OUTPUT CONTROL FOR STRESS PERIOD   11   TIME STEP    1
 
 SOLVING FOR HEAD 
                                                   Max.-Head-Change                         Max.-Flux-Residual
  Residual-Control   Outer-Iter.   Inner-Iter.     Column Row Layer    Maximum-Head-Change  Column Row Layer    Maximum-Flux-Residual          L2-NORM 
          0                 1           2             4    7     1       0.1583668645E+00       4    7    1         0.8329871633E+01      0.1611216423E+02
          0                 2           2             4    6     1       0.3793555778E-01       4    6    1         0.2079715658E+01      0.2962012710E+01
          0                 3           2             4    8     1      -0.2545019901E-02       4    8    1        -0.1429716210E+00      0.2337716110E+00
          0                 4           2             4    6     1      -0.2144738162E-03       4    6    1        -0.1200601779E-01      0.1807972745E-01
          0                 5           1             4    6     1       0.1459424560E-04       4    6    1         0.8417067979E-03      0.1000517466E-02

    ------------------------------------------------
       NWT REQUIRED            5 OUTER ITERATIONS 
       AND A TOTAL OF          9 INNER ITERATIONS.
    ------------------------------------------------

 NO OUTPUT CONTROL FOR STRESS PERIOD   11   TIME STEP    2
 
 SOLVING FOR HEAD 
                                                   Max.-Head-Change                         Max.-Flux-Residual
  Residual-Control   Outer-Iter.   Inner-Iter.     Column Row Layer    Maximum-Head-Change  Column Row Layer    Maximum-Flux-Residual          L2-NORM 
          0                 1           2             4    7     1       0.1580737608E+00       4    7    1         0.8324321664E+01      0.1577428165E+02
          0                 2           2             4    7     1      -0.1536840030E-01       4    7    1        -0.8320123581E+00      0.1576615880E+01
          0                 3           2             4    7     1       0.1045739265E-02       4    7    1         0.5819677758E-01      0.1102815897E+00
          0                 4           1             4    7     1      -0.4155884315E-04       4    7    1        -0.2377271115E-02      0.4505001151E-02

    ------------------------------------------------
       NWT REQUIRED            4 OUTER ITERATIONS 
       AND A TOTAL OF          7 INNER ITERATIONS.
    ------------------------------------------------

 NO OUTPUT CONTROL FOR STRESS PERIOD   11   TIME STEP    3
 
 SOLVING FOR HEAD 
                                                   Max.-Head-Change                         Max.-Flux-Residual
  Residual-Control   Outer-Iter.   Inner-Iter.     Column Row Layer    Maximum-Head-Change  Column Row Layer    Maximum-Flux-Residual          L2-NORM 
          0                 1           2             4    7     1       0.1559360080E+00       4    7    1         0.8213184775E+01      0.1551709343E+02
          0                 2           2             4    6     1      -0.1288493198E-01       4    6    1        -0.7077921228E+00      0.1355542921E+01
          0                 3           2             4    7     1      -0.1813083407E-02       4    7    1        -0.1034151236E+00      0.1384430037E+00
          0                 4           1             4    7     1      -0.5207504412E-03       4    7    1        -0.2906586130E-01      0.2931605058E-01
          0                 5           1             4    7     1      -0.1495661259E-03       4    7    1        -0.8371228351E-02      0.8371266466E-02
          0                 6           1             4    7     1      -0.4295626939E-04       4    7    1        -0.2403953125E-02      0.2403982275E-02

    ------------------------------------------------
       NWT REQUIRED            6 OUTER ITERATIONS 
       AND A TOTAL OF          9 INNER ITERATIONS.
    ------------------------------------------------

 NO OUTPUT CONTROL FOR STRESS PERIOD   11   TIME STEP    4
 
 SOLVING FOR HEAD 
                                                   Max.-Head-Change                         Max.-Flux-Residual
  Residual-Control   Outer-Iter.   Inner-Iter.     Column Row Layer    Maximum-Head-Change  Column Row Layer    Maximum-Flux-Residual          L2-NORM 
          0                 1           2             4    7     1       0.1535390149E+00       4    7    1         0.8087529416E+01      0.1526672538E+02
          0                 2           2             4    7     1       0.4103068174E-01       4    7    1         0.2261137751E+01      0.2605315135E+01
          0                 3           2             4    7     1       0.1096482921E-01       4    7    1         0.5950462300E+00      0.6021050509E+00
          0                 4           1             4    7     1       0.2930179153E-02       4    7    1         0.1595938301E+00      0.1596229863E+00
          0                 5           1             4    7     1       0.7830443291E-03       4    7    1         0.4262542583E-01      0.4262670006E-01
          0                 6           1             4    7     1       0.2092563174E-03       4    7    1         0.1139193449E-01      0.1139203751E-01
          0                 7           1             4    7     1       0.5592046873E-04       4    7    1         0.3044277012E-02      0.3044311812E-02

    ------------------------------------------------
       NWT REQUIRED            7 OUTER ITERATIONS 
       AND A TOTAL OF         10 INNER ITERATIONS.
    ------------------------------------------------

 NO OUTPUT CONTROL FOR STRESS PERIOD   11   TIME STEP    5
 
 SOLVING FOR HEAD 
                                                   Max.-Head-Change                         Max.-Flux-Residual
  Residual-Control   Outer-Iter.   Inner-Iter.     Column Row Layer    Maximum-Head-Change  Column Row Layer    Maximum-Flux-Residual          L2-NORM 
          0                 1           2             4    7     1       0.1469220475E+00       4    7    1         0.7786225908E+01      0.1383415856E+02
          0                 2           2             4    7     1      -0.1335363696E-01       4    7    1        -0.7328861340E+00      0.1204829175E+01
          0                 3           2             4    6     1      -0.1595091008E-02       4    6    1        -0.9087038701E-01      0.1222428119E+00
          0                 4           2             4    6     1      -0.4570463262E-03       4    6    1        -0.2557060375E-01      0.2579376054E-01
          0                 5           2             4    6     1      -0.1309562198E-03       4    6    1        -0.7343506556E-02      0.7343577688E-02
          0                 6           1             4    6     1      -0.3752163552E-04       4    6    1        -0.2103833223E-02      0.2103860424E-02

    ------------------------------------------------
       NWT REQUIRED            6 OUTER ITERATIONS 
       AND A TOTAL OF         11 INNER ITERATIONS.
    ------------------------------------------------

 NO OUTPUT CONTROL FOR STRESS PERIOD   11   TIME STEP    6
 
 SOLVING FOR HEAD 
                                                   Max.-Head-Change                         Max.-Flux-Residual
  Residual-Control   Outer-Iter.   Inner-Iter.     Column Row Layer    Maximum-Head-Change  Column Row Layer    Maximum-Flux-Residual          L2-NORM 
          0                 1           2             4    7     1       0.1424164217E+00       4    7    1         0.7624570528E+01      0.1228276492E+02
          0                 2           2             4    6     1       0.3435053497E-01       4    6    1         0.1873878015E+01      0.2207498902E+01
          0                 3           2             4    6     1       0.9238011501E-02       4    6    1         0.4997627074E+00      0.5462440637E+00
          0                 4           2             4    6     1       0.2484997312E-02       4    6    1         0.1346682529E+00      0.1468147124E+00
          0                 5           2             4    6     1       0.6686056267E-03       4    6    1         0.3621718056E-01      0.3963139541E-01
          0                 6           2             4    6     1       0.1799315900E-03       4    6    1         0.9745491104E-02      0.1070395806E-01
          0                 7           1             4    6     1       0.4843225839E-04       4    6    1         0.2622788604E-02      0.2891286786E-02

    ------------------------------------------------
       NWT REQUIRED            7 OUTER ITERATIONS 
       AND A TOTAL OF         13 INNER ITERATIONS.
    ------------------------------------------------

 NO OUTPUT CONTROL FOR STRESS PERIOD   11   TIME STEP    7
 
 SOLVING FOR HEAD 
                                                   Max.-Head-Change                         Max.-Flux-Residual
  Residual-Control   Outer-Iter.   Inner-Iter.     Column Row Layer    Maximum-Head-Change  Column Row Layer    Maximum-Flux-Residual          L2-NORM 
          0                 1           2             4    7     1       0.1391566602E+00       4    7    1         0.7447342187E+01      0.1132916656E+02
          0                 2           2             4    7     1      -0.1331900527E-01       4    7    1        -0.7443843361E+00      0.9474031988E+00
          0                 3           2             4    7     1       0.9063089994E-03       4    7    1         0.5214080305E-01      0.6756274785E-01
          0                 4           1             4    7     1      -0.3601916367E-04       4    7    1        -0.2136973490E-02      0.2941305214E-02

    ------------------------------------------------
       NWT REQUIRED            4 OUTER ITERATIONS 
       AND A TOTAL OF          7 INNER ITERATIONS.
    ------------------------------------------------

 NO OUTPUT CONTROL FOR STRESS PERIOD   11   TIME STEP    8
 
 SOLVING FOR HEAD 
                                                   Max.-Head-Change                         Max.-Flux-Residual
  Residual-Control   Outer-Iter.   Inner-Iter.     Column Row Layer    Maximum-Head-Change  Column Row Layer    Maximum-Flux-Residual          L2-NORM 
          0                 1           2             4    7     1       0.1353643867E+00       4    7    1         0.7241546894E+01      0.1057027096E+02
          0                 2           2             4    6     1      -0.1133613131E-01       4    6    1        -0.6297893290E+00      0.8077269963E+00
          0                 3           2             4    7     1      -0.1325128185E-02       4    7    1        -0.7527903177E-01      0.9255041641E-01
          0                 4           1             4    7     1      -0.3798008413E-03       4    7    1        -0.2125205086E-01      0.2136967566E-01
          0                 5           1             4    7     1      -0.1088541562E-03       4    7    1        -0.6102606177E-02      0.6102648836E-02
          0                 6           1             4    7     1      -0.3119779161E-04       4    7    1        -0.1748854252E-02      0.1748877179E-02

    ------------------------------------------------
       NWT REQUIRED            6 OUTER ITERATIONS 
       AND A TOTAL OF          9 INNER ITERATIONS.
    ------------------------------------------------

 NO OUTPUT CONTROL FOR STRESS PERIOD   11   TIME STEP    9
 
 SOLVING FOR HEAD 
                                                   Max.-Head-Change                         Max.-Flux-Residual
  Residual-Control   Outer-Iter.   Inner-Iter.     Column Row Layer    Maximum-Head-Change  Column Row Layer    Maximum-Flux-Residual          L2-NORM 
          0                 1           2             4    7     1       0.1248302417E+00       4    7    1         0.6667348510E+01      0.1008403101E+02
          0                 2           2             4    7     1      -0.1213661715E-01       4    7    1        -0.6664151119E+00      0.1007855539E+01
          0                 3           2             4    7     1       0.8258402770E-03       4    7    1         0.4661413029E-01      0.7050090972E-01
          0                 4           1             4    7     1      -0.3282038451E-04       4    7    1        -0.1904167411E-02      0.2880170780E-02

    ------------------------------------------------
       NWT REQUIRED            4 OUTER ITERATIONS 
       AND A TOTAL OF          7 INNER ITERATIONS.
    ------------------------------------------------

 NO OUTPUT CONTROL FOR STRESS PERIOD   11   TIME STEP   10
 
 SOLVING FOR HEAD 
                                                   Max.-Head-Change                         Max.-Flux-Residual
  Residual-Control   Outer-Iter.   Inner-Iter.     Column Row Layer    Maximum-Head-Change  Column Row Layer    Maximum-Flux-Residual          L2-NORM 
          0                 1           2             4    6     1       0.1102368917E+00       4    6    1         0.5951763488E+01      0.7767832545E+01
          0                 2           2             4    6     1      -0.1071775708E-01       4    6    1        -0.5948872640E+00      0.7764325598E+00
          0                 3           2             4    6     1       0.7293015633E-03       4    6    1         0.4161132798E-01      0.5431468962E-01
          0                 4           1             4    6     1      -0.2898424261E-04       4    6    1        -0.1699827295E-02      0.2219036050E-02

    ------------------------------------------------
       NWT REQUIRED            4 OUTER ITERATIONS 
       AND A TOTAL OF          7 INNER ITERATIONS.
    ------------------------------------------------

 NO OUTPUT CONTROL FOR STRESS PERIOD   11   TIME STEP   11
 
 SOLVING FOR HEAD 
                                                   Max.-Head-Change                         Max.-Flux-Residual
  Residual-Control   Outer-Iter.   Inner-Iter.     Column Row Layer    Maximum-Head-Change  Column Row Layer    Maximum-Flux-Residual          L2-NORM 
          0                 1           2             4    6     1       0.1061735297E+00       4    6    1         0.5727749752E+01      0.7581663812E+01
          0                 2           2             4    6     1      -0.1002956816E-01       4    6    1        -0.5560573565E+00      0.7454848168E+00
          0                 3           2             4    6     1       0.3973292171E-03       4    6    1         0.2245682361E-01      0.4136555784E-01
          0                 4           1             4    6     1      -0.1579071631E-04       4    6    1        -0.9173527301E-03      0.1690182321E-02

    ------------------------------------------------
       NWT REQUIRED            4 OUTER ITERATIONS 
       AND A TOTAL OF          7 INNER ITERATIONS.
    ------------------------------------------------

 NO OUTPUT CONTROL FOR STRESS PERIOD   11   TIME STEP   12
 
 SOLVING FOR HEAD 
                                                   Max.-Head-Change                         Max.-Flux-Residual
  Residual-Control   Outer-Iter.   Inner-Iter.     Column Row Layer    Maximum-Head-Change  Column Row Layer    Maximum-Flux-Residual          L2-NORM 
          0                 1           2             4    6     1       0.1023412963E+00       4    6    1         0.5516622785E+01      0.7408196487E+01
          0                 2           2             4    6     1       0.2404099379E-01       4    6    1         0.1318128092E+01      0.1407746397E+01
          0                 3           2             4    6     1       0.6407268675E-02       4    6    1         0.3490431362E+00      0.3508040620E+00
          0                 4           2             4    6     1       0.1707633047E-02       4    6    1         0.9316198635E-01      0.9317023066E-01
          0                 5           2             4    6     1       0.4551098778E-03       4    6    1         0.2482348717E-01      0.2482395952E-01
          0                 6           2             4    6     1       0.1212936419E-03       4    6    1         0.6616062234E-02      0.6616138165E-02
          0                 7           1             4    6     1       0.3232658436E-04       4    6    1         0.1763271068E-02      0.1763293036E-02

    ------------------------------------------------
       NWT REQUIRED            7 OUTER ITERATIONS 
       AND A TOTAL OF         13 INNER ITERATIONS.
    ------------------------------------------------

 NO OUTPUT CONTROL FOR STRESS PERIOD   11   TIME STEP   13
 
 SOLVING FOR HEAD 
                                                   Max.-Head-Change                         Max.-Flux-Residual
  Residual-Control   Outer-Iter.   Inner-Iter.     Column Row Layer    Maximum-Head-Change  Column Row Layer    Maximum-Flux-Residual          L2-NORM 
          0                 1           2             4    6     1       0.5027753014E-01       4    6    1         0.2672964672E+01      0.5630683913E+01
          0                 2           2             4    6     1      -0.4888083410E-02       4    6    1        -0.2671569961E+00      0.5628360851E+00
          0                 3           2             4    6     1       0.3326133669E-03       4    6    1         0.1868702351E-01      0.3937583580E-01
          0                 4           1             4    6     1      -0.1321870436E-04       4    6    1        -0.7633521154E-03      0.1608947106E-02

    ------------------------------------------------
       NWT REQUIRED            4 OUTER ITERATIONS 
       AND A TOTAL OF          7 INNER ITERATIONS.
    ------------------------------------------------

 NO OUTPUT CONTROL FOR STRESS PERIOD   11   TIME STEP   14
 
 SOLVING FOR HEAD 
                                                   Max.-Head-Change                         Max.-Flux-Residual
  Residual-Control   Outer-Iter.   Inner-Iter.     Column Row Layer    Maximum-Head-Change  Column Row Layer    Maximum-Flux-Residual          L2-NORM 
          0                 1           2             4    7     1       0.4414761787E-01       4    7    1         0.2345383544E+01      0.4931531757E+01
          0                 2           2             4    7     1      -0.4292101020E-02       4    7    1        -0.2344156636E+00      0.4929667599E+00
          0                 3           2             4    7     1       0.2920577502E-03       4    7    1         0.1639683519E-01      0.3448952231E-01
          0                 4           1             4    7     1      -0.1160682401E-04       4    7    1        -0.6697988761E-03      0.1409397861E-02

    ------------------------------------------------
       NWT REQUIRED            4 OUTER ITERATIONS 
       AND A TOTAL OF          7 INNER ITERATIONS.
    ------------------------------------------------

 NO OUTPUT CONTROL FOR STRESS PERIOD   11   TIME STEP   15
 
 SOLVING FOR HEAD 
                                                   Max.-Head-Change                         Max.-Flux-Residual
  Residual-Control   Outer-Iter.   Inner-Iter.     Column Row Layer    Maximum-Head-Change  Column Row Layer    Maximum-Flux-Residual          L2-NORM 
          0                 1           2             4    7     1       0.4320520706E-01       4    7    1         0.2293837904E+01      0.4853253059E+01
          0                 2           2             4    7     1      -0.4200475916E-02       4    7    1        -0.2292636388E+00      0.4851222551E+00
          0                 3           2             4    7     1       0.2858229701E-03       4    7    1         0.1603645595E-01      0.3394070582E-01
          0                 4           1             4    7     1      -0.1135903602E-04       4    7    1        -0.6550771159E-03      0.1386981443E-02

    ------------------------------------------------
       NWT REQUIRED            4 OUTER ITERATIONS 
       AND A TOTAL OF          7 INNER ITERATIONS.
    ------------------------------------------------

 NO OUTPUT CONTROL FOR STRESS PERIOD   11   TIME STEP   16
 
 SOLVING FOR HEAD 
                                                   Max.-Head-Change                         Max.-Flux-Residual
  Residual-Control   Outer-Iter.   Inner-Iter.     Column Row Layer    Maximum-Head-Change  Column Row Layer    Maximum-Flux-Residual          L2-NORM 
          0                 1           2             4    7     1       0.4230871154E-01       4    7    1         0.2244865354E+01      0.4778331523E+01
          0                 2           2             4    7     1      -0.4113315003E-02       4    7    1        -0.2243688009E+00      0.4776531173E+00
          0                 3           2             4    7     1       0.2798919681E-03       4    7    1         0.1569406698E-01      0.3341814330E-01
          0                 4           1             4    7     1      -0.1112332124E-04       4    7    1        -0.6410902706E-03      0.1365623852E-02

    ------------------------------------------------
       NWT REQUIRED            4 OUTER ITERATIONS 
       AND A TOTAL OF          7 INNER ITERATIONS.
    ------------------------------------------------

 NO OUTPUT CONTROL FOR STRESS PERIOD   11   TIME STEP   17
 
 SOLVING FOR HEAD 
                                                   Max.-Head-Change                         Max.-Flux-Residual
  Residual-Control   Outer-Iter.   Inner-Iter.     Column Row Layer    Maximum-Head-Change  Column Row Layer    Maximum-Flux-Residual          L2-NORM 
          0                 1           2             4    7     1       0.4145512093E-01       4    7    1         0.2198295413E+01      0.4706483140E+01
          0                 2           2             4    7     1      -0.4030325540E-02       4    7    1        -0.2197141102E+00      0.4704711573E+00
          0                 3           2             4    7     1       0.2742448249E-03       4    7    1         0.1536847636E-01      0.3291569042E-01
          0                 4           1             4    7     1      -0.1089888827E-04       4    7    1        -0.6277897151E-03      0.1345074177E-02

    ------------------------------------------------
       NWT REQUIRED            4 OUTER ITERATIONS 
       AND A TOTAL OF          7 INNER ITERATIONS.
    ------------------------------------------------

 NO OUTPUT CONTROL FOR STRESS PERIOD   11   TIME STEP   18
 
 SOLVING FOR HEAD 
                                                   Max.-Head-Change                         Max.-Flux-Residual
  Residual-Control   Outer-Iter.   Inner-Iter.     Column Row Layer    Maximum-Head-Change  Column Row Layer    Maximum-Flux-Residual          L2-NORM 
          0                 1           2             4    7     1       0.4064101941E-01       4    7    1         0.2153935370E+01      0.4637418600E+01
          0                 2           2             4    7     1      -0.3951175435E-02       4    7    1        -0.2152803044E+00      0.4635674990E+00
          0                 3           2             4    7     1       0.2688589407E-03       4    7    1         0.1505833666E-01      0.3243272401E-01
          0                 4           1             4    7     1      -0.1068483901E-04       4    7    1        -0.6151203406E-03      0.1325349937E-02

    ------------------------------------------------
       NWT REQUIRED            4 OUTER ITERATIONS 
       AND A TOTAL OF          7 INNER ITERATIONS.
    ------------------------------------------------

 NO OUTPUT CONTROL FOR STRESS PERIOD   11   TIME STEP   19
 
 SOLVING FOR HEAD 
                                                   Max.-Head-Change                         Max.-Flux-Residual
  Residual-Control   Outer-Iter.   Inner-Iter.     Column Row Layer    Maximum-Head-Change  Column Row Layer    Maximum-Flux-Residual          L2-NORM 
          0                 1           2             4    7     1       0.3986393196E-01       4    7    1         0.2111644753E+01      0.4570926879E+01
          0                 2           2             4    7     1      -0.3875624057E-02       4    7    1        -0.2110533432E+00      0.4569209176E+00
          0                 3           2             4    7     1       0.2637179414E-03       4    7    1         0.1476266577E-01      0.3196776096E-01
          0                 4           1             4    7     1      -0.1048052217E-04       4    7    1        -0.6030420209E-03      0.1306445346E-02

    ------------------------------------------------
       NWT REQUIRED            4 OUTER ITERATIONS 
       AND A TOTAL OF          7 INNER ITERATIONS.
    ------------------------------------------------

 NO OUTPUT CONTROL FOR STRESS PERIOD   11   TIME STEP   20
 
 SOLVING FOR HEAD 
                                                   Max.-Head-Change                         Max.-Flux-Residual
  Residual-Control   Outer-Iter.   Inner-Iter.     Column Row Layer    Maximum-Head-Change  Column Row Layer    Maximum-Flux-Residual          L2-NORM 
          0                 1           2             4    7     1       0.3912092111E-01       4    7    1         0.2071258599E+01      0.4506787803E+01
          0                 2           2             4    7     1      -0.3803385806E-02       4    7    1        -0.2070167381E+00      0.4505094786E+00
          0                 3           2             4    7     1       0.2588023927E-03       4    7    1         0.1448031028E-01      0.3151910219E-01
          0                 4           1             4    7     1      -0.1028516583E-04       4    7    1        -0.5915076845E-03      0.1288024489E-02

    ------------------------------------------------
       NWT REQUIRED            4 OUTER ITERATIONS 
       AND A TOTAL OF          7 INNER ITERATIONS.
    ------------------------------------------------

 NO OUTPUT CONTROL FOR STRESS PERIOD   11   TIME STEP   21
 
 SOLVING FOR HEAD 
                                                   Max.-Head-Change                         Max.-Flux-Residual
  Residual-Control   Outer-Iter.   Inner-Iter.     Column Row Layer    Maximum-Head-Change  Column Row Layer    Maximum-Flux-Residual          L2-NORM 
          0                 1           2             4    7     1       0.3840995512E-01       4    7    1         0.2032661246E+01      0.4444822556E+01
          0                 2           2             4    7     1      -0.3734263143E-02       4    7    1        -0.2031589283E+00      0.4443154092E+00
          0                 3           2             4    7     1       0.2540988522E-03       4    7    1         0.1421046153E-01      0.3108570283E-01
          0                 4           1             4    7     1      -0.1009823545E-04       4    7    1        -0.5804842708E-03      0.1270373216E-02

    ------------------------------------------------
       NWT REQUIRED            4 OUTER ITERATIONS 
       AND A TOTAL OF          7 INNER ITERATIONS.
    ------------------------------------------------

 NO OUTPUT CONTROL FOR STRESS PERIOD   11   TIME STEP   22
 
 SOLVING FOR HEAD 
                                                   Max.-Head-Change                         Max.-Flux-Residual
  Residual-Control   Outer-Iter.   Inner-Iter.     Column Row Layer    Maximum-Head-Change  Column Row Layer    Maximum-Flux-Residual          L2-NORM 
          0                 1           2             4    7     1       0.3772864172E-01       4    7    1         0.1995718038E+01      0.4384874054E+01
          0                 2           2             4    7     1      -0.3668023476E-02       4    7    1        -0.1994664545E+00      0.4383229895E+00
          0                 3           2             4    7     1       0.2495914927E-03       4    7    1         0.1395217803E-01      0.3066664350E-01
          0                 4           1             4    7     1      -0.9919101739E-05       4    7    1        -0.5699333078E-03      0.1253183758E-02

    ------------------------------------------------
       NWT REQUIRED            4 OUTER ITERATIONS 
       AND A TOTAL OF          7 INNER ITERATIONS.
    ------------------------------------------------

 NO OUTPUT CONTROL FOR STRESS PERIOD   11   TIME STEP   23
 
 SOLVING FOR HEAD 
                                                   Max.-Head-Change                         Max.-Flux-Residual
  Residual-Control   Outer-Iter.   Inner-Iter.     Column Row Layer    Maximum-Head-Change  Column Row Layer    Maximum-Flux-Residual          L2-NORM 
          0                 1           2             4    7     1       0.3707504216E-01       4    7    1         0.1960319597E+01      0.4326782794E+01
          0                 2           2             4    7     1      -0.3604478308E-02       4    7    1        -0.1959283841E+00      0.4325159856E+00
          0                 3           2             4    7     1       0.2452674867E-03       4    7    1         0.1370469502E-01      0.3026032305E-01
          0                 4           1             4    7     1      -0.9747255605E-05       4    7    1        -0.5598235571E-03      0.1236597803E-02

    ------------------------------------------------
       NWT REQUIRED            4 OUTER ITERATIONS 
       AND A TOTAL OF          7 INNER ITERATIONS.
    ------------------------------------------------

 NO OUTPUT CONTROL FOR STRESS PERIOD   11   TIME STEP   24
 
 SOLVING FOR HEAD 
                                                   Max.-Head-Change                         Max.-Flux-Residual
  Residual-Control   Outer-Iter.   Inner-Iter.     Column Row Layer    Maximum-Head-Change  Column Row Layer    Maximum-Flux-Residual          L2-NORM 
          0                 1           2             4    7     1       0.3644724378E-01       4    7    1         0.1926358073E+01      0.4270432273E+01
          0                 2           2             4    7     1      -0.3543441680E-02       4    7    1        -0.1925339371E+00      0.4268830140E+00
          0                 3           2             4    7     1       0.2411141810E-03       4    7    1         0.1346725849E-01      0.2986618007E-01
          0                 4           1             4    7     1      -0.9582193480E-05       4    7    1        -0.5501242249E-03      0.1220478364E-02

    ------------------------------------------------
       NWT REQUIRED            4 OUTER ITERATIONS 
       AND A TOTAL OF          7 INNER ITERATIONS.
    ------------------------------------------------

 NO OUTPUT CONTROL FOR STRESS PERIOD   11   TIME STEP   25
 
 SOLVING FOR HEAD 
                                                   Max.-Head-Change                         Max.-Flux-Residual
  Residual-Control   Outer-Iter.   Inner-Iter.     Column Row Layer    Maximum-Head-Change  Column Row Layer    Maximum-Flux-Residual          L2-NORM 
          0                 1           2             4    7     1       0.3584362063E-01       4    7    1         0.1893741628E+01      0.4215703129E+01
          0                 2           2             4    7     1      -0.3484755504E-02       4    7    1        -0.1892739341E+00      0.4214117562E+00
          0                 3           2             4    7     1       0.2371208170E-03       4    7    1         0.1323922624E-01      0.2948342066E-01
          0                 4           1             4    7     1      -0.9423488471E-05       4    7    1        -0.5408090847E-03      0.1204840569E-02

    ------------------------------------------------
       NWT REQUIRED            4 OUTER ITERATIONS 
       AND A TOTAL OF          7 INNER ITERATIONS.
    ------------------------------------------------

 NO OUTPUT CONTROL FOR STRESS PERIOD   11   TIME STEP   26
 
 SOLVING FOR HEAD 
                                                   Max.-Head-Change                         Max.-Flux-Residual
  Residual-Control   Outer-Iter.   Inner-Iter.     Column Row Layer    Maximum-Head-Change  Column Row Layer    Maximum-Flux-Residual          L2-NORM 
          0                 1           2             4    7     1       0.3526254761E-01       4    7    1         0.1862378629E+01      0.4162485146E+01
          0                 2           2             4    7     1      -0.3428261780E-02       4    7    1        -0.1861392159E+00      0.4160924317E+00
          0                 3           2             4    7     1       0.2332766439E-03       4    7    1         0.1301995767E-01      0.2911123458E-01
          0                 4           1             4    7     1      -0.9270712419E-05       4    7    1        -0.5318519534E-03      0.1189601983E-02

    ------------------------------------------------
       NWT REQUIRED            4 OUTER ITERATIONS 
       AND A TOTAL OF          7 INNER ITERATIONS.
    ------------------------------------------------

 NO OUTPUT CONTROL FOR STRESS PERIOD   11   TIME STEP   27
 
 SOLVING FOR HEAD 
                                                   Max.-Head-Change                         Max.-Flux-Residual
  Residual-Control   Outer-Iter.   Inner-Iter.     Column Row Layer    Maximum-Head-Change  Column Row Layer    Maximum-Flux-Residual          L2-NORM 
          0                 1           2             4    7     1       0.3470252575E-01       4    7    1         0.1832184816E+01      0.4110681410E+01
          0                 2           2             4    7     1      -0.3373814766E-02       4    7    1        -0.1831213606E+00      0.4109140195E+00
          0                 3           2             4    7     1       0.2295717435E-03       4    7    1         0.1280886363E-01      0.2874893570E-01
          0                 4           1             4    7     1      -0.9123470895E-05       4    7    1        -0.5232287222E-03      0.1174828656E-02

    ------------------------------------------------
       NWT REQUIRED            4 OUTER ITERATIONS 
       AND A TOTAL OF          7 INNER ITERATIONS.
    ------------------------------------------------

 NO OUTPUT CONTROL FOR STRESS PERIOD   11   TIME STEP   28
 
 SOLVING FOR HEAD 
                                                   Max.-Head-Change                         Max.-Flux-Residual
  Residual-Control   Outer-Iter.   Inner-Iter.     Column Row Layer    Maximum-Head-Change  Column Row Layer    Maximum-Flux-Residual          L2-NORM 
          0                 1           2             4    7     1       0.3416231031E-01       4    7    1         0.1803089803E+01      0.4060217270E+01
          0                 2           2             4    7     1      -0.3321293441E-02       4    7    1        -0.1802133328E+00      0.4058686952E+00
          0                 3           2             4    7     1       0.2259978819E-03       4    7    1         0.1260545200E-01      0.2839596658E-01
          0                 4           1             4    7     1      -0.8981438550E-05       4    7    1        -0.5149193867E-03      0.1160408570E-02

    ------------------------------------------------
       NWT REQUIRED            4 OUTER ITERATIONS 
       AND A TOTAL OF          7 INNER ITERATIONS.
    ------------------------------------------------

 NO OUTPUT CONTROL FOR STRESS PERIOD   11   TIME STEP   29
 
 SOLVING FOR HEAD 
                                                   Max.-Head-Change                         Max.-Flux-Residual
  Residual-Control   Outer-Iter.   Inner-Iter.     Column Row Layer    Maximum-Head-Change  Column Row Layer    Maximum-Flux-Residual          L2-NORM 
          0                 1           2             4    7     1       0.3364062045E-01       4    7    1         0.1775021720E+01      0.4011002804E+01
          0                 2           2             4    7     1      -0.3270572090E-02       4    7    1        -0.1774079490E+00      0.4008982079E+00
          0                 3           2             4    7     1       0.2225465026E-03       4    7    1         0.1240922025E-01      0.2804820402E-01
          0                 4           1             4    7     1      -0.8844273455E-05       4    7    1        -0.5069033232E-03      0.1146172389E-02

    ------------------------------------------------
       NWT REQUIRED            4 OUTER ITERATIONS 
       AND A TOTAL OF          7 INNER ITERATIONS.
    ------------------------------------------------

 NO OUTPUT CONTROL FOR STRESS PERIOD   11   TIME STEP   30



 STREAM LISTING     PERIOD     11   STEP       30

 LAYER ROW COL. STREAM  RCH.  FLOW INTO     FLOW TO   FLOW OUT OF   OVRLND.     DIRECT     STREAM       STREAM     STREAM     STREAM   STREAMBED  STREAMBED
                SEG.NO.  NO.  STRM. RCH.    AQUIFER    STRM. RCH.    RUNOFF     PRECIP       ET          HEAD       DEPTH      WIDTH   CONDCTNC.   GRADIENT

   1    1    1     1     1    3.5000E+01  2.8629E-01   3.4713E+01  0.000E+00  0.000E+00  0.000E+00  1.09434E+03  1.292E+00  1.482E+01  6.670E-02  1.431E+00
   1    2    2     1     2    3.4713E+01  4.4324E-01   3.4270E+01  0.000E+00  0.000E+00  0.000E+00  1.08935E+03  1.289E+00  1.476E+01  1.033E-01  1.430E+00
   1    3    3     1     3    3.4270E+01  3.7790E-01   3.3892E+01  0.000E+00  0.000E+00  0.000E+00  1.08370E+03  1.286E+00  1.470E+01  8.817E-02  1.429E+00
   1    3    4     1     4    3.3892E+01  3.4789E-01   3.3544E+01  0.000E+00  0.000E+00  0.000E+00  1.07869E+03  1.283E+00  1.464E+01  8.123E-02  1.428E+00
   1    4    5     2     1    3.1544E+01  3.4194E-01   3.1202E+01  0.000E+00  0.000E+00  0.000E+00  1.07332E+03  1.384E+00  1.200E+01  7.800E-02  1.461E+00
   1    5    6     2     2    3.1202E+01  2.6255E-01   3.0940E+01  0.000E+00  0.000E+00  0.000E+00  1.06789E+03  1.376E+00  1.200E+01  6.000E-02  1.459E+00
   1    6    6     2     3    3.0940E+01  2.6213E-01   3.0678E+01  0.000E+00  0.000E+00  0.000E+00  1.06316E+03  1.369E+00  1.200E+01  6.000E-02  1.456E+00
   1    7    6     2     4    3.0678E+01  2.6171E-01   3.0416E+01  0.000E+00  0.000E+00  0.000E+00  1.05844E+03  1.362E+00  1.200E+01  6.000E-02  1.454E+00
   1    8    6     2     5    3.0416E+01  2.6129E-01   3.0155E+01  0.000E+00  0.000E+00  0.000E+00  1.05371E+03  1.355E+00  1.200E+01  6.000E-02  1.452E+00
   1    3    5     3     1    2.0000E+00  2.8252E-01   1.7175E+00  0.000E+00  0.000E+00  0.000E+00  1.07555E+03  1.909E+00  9.636E+00  7.227E-02  1.955E+00
   1    3    6     3     2    1.7175E+00  2.4905E-01   1.4684E+00  0.000E+00  0.000E+00  0.000E+00  1.07264E+03  1.727E+00  8.909E+00  6.682E-02  1.864E+00
   1    3    7     3     3    1.4684E+00  1.9718E-01   1.2712E+00  0.000E+00  0.000E+00  0.000E+00  1.06987E+03  1.555E+00  8.218E+00  5.547E-02  1.777E+00
   1    4    8     3     4    1.2712E+00  2.2567E-01   1.0456E+00  0.000E+00  0.000E+00  0.000E+00  1.06682E+03  1.364E+00  7.455E+00  6.709E-02  1.682E+00
   1    5    8     3     5    1.0456E+00  1.5790E-01   8.8768E-01  0.000E+00  0.000E+00  0.000E+00  1.06362E+03  1.164E+00  6.655E+00  4.991E-02  1.582E+00
   1    6    8     3     6    8.8768E-01  5.5980E-02   8.3170E-01  0.000E+00  0.000E+00  0.000E+00  1.06158E+03  1.036E+00  6.145E+00  1.844E-02  1.518E+00
   1    5   10     4     1    1.0000E+01  9.0919E-02   9.9091E+00  0.000E+00  0.000E+00  0.000E+00  1.07836E+03  6.368E-01  1.000E+01  2.500E-02  1.212E+00
   1    5    9     4     2    9.9091E+00  1.8158E-01   9.7275E+00  0.000E+00  0.000E+00  0.000E+00  1.07154E+03  6.315E-01  1.000E+01  5.000E-02  1.211E+00
   1    6    8     4     3    9.7275E+00  1.2689E-01   9.6006E+00  0.000E+00  0.000E+00  0.000E+00  1.06381E+03  6.256E-01  1.000E+01  3.500E-02  1.209E+00
   1    6    8     5     1    1.0432E+01  2.2686E-01   1.0205E+01  0.000E+00  0.000E+00  0.000E+00  1.05868E+03  6.790E-01  1.542E+01  6.166E-02  1.226E+00
   1    7    7     5     2    1.0205E+01  2.7894E-01   9.9265E+00  0.000E+00  0.000E+00  0.000E+00  1.05417E+03  6.732E-01  1.519E+01  7.594E-02  1.224E+00
   1    8    7     5     3    9.9265E+00  1.9221E-01   9.7343E+00  0.000E+00  0.000E+00  0.000E+00  1.04992E+03  6.676E-01  1.497E+01  5.241E-02  1.223E+00
   1    8    6     5     4    9.7343E+00  1.3577E-01   9.5985E+00  0.000E+00  0.000E+00  0.000E+00  1.04691E+03  6.637E-01  1.482E+01  3.706E-02  1.221E+00
   1    9    6     6     1    3.9753E+01  2.7657E-01   3.9477E+01  0.000E+00  0.000E+00  0.000E+00  1.04434E+03  1.609E+00  1.200E+01  6.000E-02  1.536E+00
   1   10    7     6     2    3.9477E+01  2.7616E-01   3.9201E+01  0.000E+00  0.000E+00  0.000E+00  1.03978E+03  1.603E+00  1.200E+01  6.000E-02  1.534E+00
   1   11    7     6     3    3.9201E+01  2.7576E-01   3.8925E+01  0.000E+00  0.000E+00  0.000E+00  1.03523E+03  1.596E+00  1.200E+01  6.000E-02  1.532E+00
   1   12    7     6     4    3.8925E+01  2.7535E-01   3.8649E+01  0.000E+00  0.000E+00  0.000E+00  1.03068E+03  1.589E+00  1.200E+01  6.000E-02  1.530E+00
   1   13    7     6     5    3.8649E+01  6.5240E-03   3.8643E+01  0.000E+00  0.000E+00  0.000E+00  1.02749E+03  1.586E+00  1.200E+01  2.400E-02  9.061E-02
   1   14    9     7     1    1.5000E+02  1.3303E+00   1.4867E+02  0.000E+00  0.000E+00  0.000E+00  1.03987E+03  2.288E+00  5.529E+01  5.593E-01  7.928E-01
   1   13    8     7     2    1.4867E+02  1.7945E+00   1.4688E+02  0.000E+00  0.000E+00  0.000E+00  1.03478E+03  2.279E+00  5.526E+01  6.148E-01  9.730E-01
   1   13    7     7     3    1.4688E+02  1.3779E+00   1.4550E+02  0.000E+00  0.000E+00  0.000E+00  1.02969E+03  2.271E+00  5.522E+01  5.585E-01  8.224E-01
   1   13    6     8     1    1.8414E+02  8.8645E-01   1.8325E+02  0.000E+00  0.000E+00  0.000E+00  1.02491E+03  3.039E+00  4.407E+01  4.491E-01  6.580E-01
   1   13    5     8     2    1.8325E+02  1.2924E-01   1.8312E+02  0.000E+00  0.000E+00  0.000E+00  1.01866E+03  3.036E+00  4.402E+01  4.486E-01  9.603E-02
   1   13    4     8     3    1.8312E+02 -2.6025E+00   1.8573E+02  0.000E+00  0.000E+00  0.000E+00  1.01242E+03  3.044E+00  4.413E+01  4.497E+00 -1.929E-01
   1   13    3     8     4    1.8573E+02 -3.7448E+00   1.8947E+02  0.000E+00  0.000E+00  0.000E+00  1.00619E+03  3.063E+00  4.442E+01  4.526E+00 -2.758E-01
   1   13    2     8     5    1.8947E+02 -2.6143E+00   1.9209E+02  0.000E+00  0.000E+00  0.000E+00  9.99958E+02  3.083E+00  4.470E+01  4.555E+00 -1.913E-01
   1   13    1     8     6    1.9209E+02 -2.0206E+00   1.9411E+02  0.000E+00  0.000E+00  0.000E+00  9.94972E+02  3.097E+00  4.490E+01  2.745E+00 -2.453E-01





UNSATURATED ZONE PACKAGE VOLUMETRIC BUDGET FOR  TIME STEP    30 STRESS PERIOD   11
  ------------------------------------------------------------------------------



     CUMULATIVE VOLUMES      L**3       RATES FOR THIS TIME STEP      L**3/T
     ------------------                 ------------------------

           IN:                                      IN:
           ---                                      ---
        INFILTRATION =   498203145.9760          INFILTRATION =           0.8475

          OUT:                                     OUT:
          ----                                     ----
              UZF ET =   426111082.7627                UZF ET =           0.8475
        UZF RECHARGE =    72019531.1181          UZF RECHARGE =           0.0004

            IN - OUT =       72532.0951              IN - OUT =      -3.8836E-04

          STORAGE:                                 STORAGE:
          --------                                 --------
      STORAGE CHANGE =       72524.8692        STORAGE CHANGE =      -3.8836E-04

 PERCENT DISCREPANCY IS DIFFERENCE BETWEEN IN-OUT MINUS CHANGE IN STORAGE
 DIVIDED BY THE AVERAGE OF IN AND OUT TIMES 100

 PERCENT DISCREPANCY =           0.00     PERCENT DISCREPANCY =           0.00






1
  VOLUMETRIC BUDGET FOR AGRICULTURAL FIELDS AT  END OF TIME STEP   30, STRESS PERIOD  11
  ------------------------------------------------------------------------------

     CUMULATIVE VOLUMES      L**3       RATES FOR THIS TIME STEP      L**3/T
     ------------------                 ------------------------

           IN:                                      IN:
           ---                                      ---
               AG WELLS  =   475840128.0000                 AG WELLS  =           0.0000
      DIVERSION SEGMENTS =           0.0000        DIVERSION SEGMENTS =           0.0000
           GW IRRIGATION =           0.0000             GW IRRIGATION =           0.0000
           SW IRRIGATION =           0.0000             SW IRRIGATION =           0.0000
        SYSTEM LOSSES GW =           0.0000          SYSTEM LOSSES GW =           0.0000
        SYSTEM LOSSES SW =           0.0000          SYSTEM LOSSES SW =           0.0000

                TOTAL IN =   475840128.0000                  TOTAL IN =           0.0000

          OUT:                                     OUT:
          ----                                     ----
               AG WELLS  =           0.0000                 AG WELLS  =           0.0000
      DIVERSION SEGMENTS =           0.0000        DIVERSION SEGMENTS =           0.0000
           GW IRRIGATION =   475840128.0000             GW IRRIGATION =           0.0000
           SW IRRIGATION =           0.0000             SW IRRIGATION =           0.0000
        SYSTEM LOSSES GW =           0.0000          SYSTEM LOSSES GW =           0.0000
        SYSTEM LOSSES SW =           0.0000          SYSTEM LOSSES SW =           0.0000

               TOTAL OUT =   475840128.0000                 TOTAL OUT =           0.0000

                IN - OUT =           0.0000                  IN - OUT =           0.0000

     PERCENT DISCREPANCY =           0.00         PERCENT DISCREPANCY =           0.00



1
  VOLUMETRIC BUDGET FOR ENTIRE MODEL AT END OF TIME STEP   30, STRESS PERIOD  11
  ------------------------------------------------------------------------------

     CUMULATIVE VOLUMES      L**3       RATES FOR THIS TIME STEP      L**3/T
     ------------------                 ------------------------

           IN:                                      IN:
           ---                                      ---
             STORAGE     =   548518272.0000               STORAGE     =          11.3207
       CONSTANT HEAD     =           0.0000         CONSTANT HEAD     =           0.0000
     HEAD DEP BOUNDS     =     7531935.5000       HEAD DEP BOUNDS     =           0.2854
      STREAM LEAKAGE     =   334155840.0000        STREAM LEAKAGE     =          11.8752
        UZF RECHARGE     =    72019544.0000          UZF RECHARGE     =       3.8836E-04
               GW ET     =           0.0000                 GW ET     =           0.0000
     SURFACE LEAKAGE     =           0.0000       SURFACE LEAKAGE     =           0.0000
           AG WELLS      =           0.0000             AG WELLS      =           0.0000

                TOTAL IN =   962225536.0000                  TOTAL IN =          23.4817

          OUT:                                     OUT:
          ----                                     ----
             STORAGE     =   194636448.0000               STORAGE     =          12.2027
       CONSTANT HEAD     =           0.0000         CONSTANT HEAD     =           0.0000
     HEAD DEP BOUNDS     =     7792452.0000       HEAD DEP BOUNDS     =           0.2929
      STREAM LEAKAGE     =   270201056.0000        STREAM LEAKAGE     =          10.9823
        UZF RECHARGE     =           0.0000          UZF RECHARGE     =           0.0000
               GW ET     =    13750584.0000                 GW ET     =       3.7548E-03
     SURFACE LEAKAGE     =           0.0000       SURFACE LEAKAGE     =           0.0000
           AG WELLS      =   475840128.0000             AG WELLS      =           0.0000

               TOTAL OUT =   962220672.0000                 TOTAL OUT =          23.4817

                IN - OUT =        4864.0000                  IN - OUT =       7.6294E-06

     PERCENT DISCREPANCY =           0.00         PERCENT DISCREPANCY =           0.00






         TIME SUMMARY AT END OF TIME STEP   30 IN STRESS PERIOD   11
                    SECONDS     MINUTES      HOURS       DAYS        YEARS
                    -----------------------------------------------------------
   TIME STEP LENGTH  87667.      1461.1      24.352      1.0147     2.77799E-03
 STRESS PERIOD TIME 2.63000E+06  43833.      730.56      30.440     8.33397E-02
         TOTAL TIME 2.63864E+07 4.39773E+05  7329.5      305.40     0.83613    
1
1
                            STRESS PERIOD NO.   12, LENGTH =   2630000.    
                            -----------------------------------------------

                              NUMBER OF TIME STEPS =    30

                               MULTIPLIER FOR DELT =     1.000

                            INITIAL TIME STEP SIZE =   87666.66    

 REUSING NON-PARAMETER GHB CELLS FROM LAST STRESS PERIOD

      2 GHB CELLS

 REUSING STREAM SEGMENT DATA FROM LAST STRESS PERIOD



            AREAL INFILTRATION RATE
 READING ON UNIT   19 WITH FORMAT: (FREE)              

            1           2           3           4           5           6           7           8           9          10
 ........................................................................................................................
   1   1.0000E-10  2.0000E-10   0.000       0.000       0.000       0.000       0.000       0.000       0.000       0.000    
   2   2.0000E-10  1.0000E-10  2.0000E-10   0.000       0.000      8.0000E-10  8.0000E-10  5.0000E-10   0.000       0.000    
   3    0.000      5.0000E-10  1.0000E-10  1.0000E-10  8.0000E-10  8.0000E-10  5.0000E-10  5.0000E-10   0.000       0.000    
   4   8.0000E-10  5.0000E-10  1.0000E-10  1.0000E-10  1.0000E-10  1.0000E-10  1.0000E-10  1.0000E-10  2.0000E-10   0.000    
   5   8.0000E-10  5.0000E-10  1.0000E-10  1.0000E-10  1.0000E-10  1.0000E-10  1.0000E-10  1.0000E-10  1.0000E-10  1.0000E-10
   6   8.0000E-10  5.0000E-10  5.0000E-10  2.0000E-10  2.0000E-10  1.0000E-10  1.0000E-10  1.0000E-10  1.0000E-10  5.0000E-10
   7   8.0000E-10  5.0000E-10  5.0000E-10  2.0000E-10  2.0000E-10  1.0000E-10  1.0000E-10  2.0000E-10  2.0000E-10   0.000    
   8    0.000      5.0000E-10  5.0000E-10  2.0000E-10  2.0000E-10  1.0000E-10  1.0000E-10  2.0000E-10  5.0000E-10   0.000    
   9    0.000      5.0000E-10  5.0000E-10  2.0000E-10  2.0000E-10  1.0000E-10  1.0000E-10  2.0000E-10  5.0000E-10   0.000    
  10    0.000      5.0000E-10  5.0000E-10  2.0000E-10  2.0000E-10  1.0000E-10  1.0000E-10  2.0000E-10  5.0000E-10  8.0000E-10
  11    0.000      1.0000E-10  1.0000E-10  1.0000E-10  1.0000E-10  1.0000E-10  1.0000E-10  2.0000E-10  5.0000E-10   0.000    
  12   1.0000E-10  1.0000E-10  1.0000E-10  1.0000E-10  1.0000E-10  1.0000E-10  1.0000E-10  1.0000E-10  2.0000E-10   0.000    
  13   1.0000E-10  1.0000E-10  2.0000E-10  2.0000E-10  2.0000E-10  2.0000E-10  2.0000E-10  1.0000E-10  1.0000E-10   0.000    
  14    0.000      2.0000E-10  5.0000E-10  5.0000E-10  5.0000E-10  5.0000E-10  5.0000E-10  2.0000E-10  1.0000E-10   0.000    
  15    0.000       0.000      8.0000E-10  8.0000E-10  8.0000E-10  8.0000E-10   0.000       0.000       0.000       0.000    

                  ET RATE =  5.000000E-10

 USING ET EXTINCTION DEPTH FROM PREVIOUS STRESS PERIOD. CURRENT PERIOD IS:      12

 USING EXTINCTION WATER CONTENT FROM PREVIOUS STRESS PERIOD. CURRENT PERIOD IS:      12

 USING AIR ENTRY PRESSURE FROM PREVIOUS STRESS PERIOD. CURRENT PERIOD IS:      12

 USING ROOT PRESSURE HEAD FROM PREVIOUS STRESS PERIOD. CURRENT PERIOD IS:      12

 USING ROOT ACTIVITY FROM PREVIOUS STRESS PERIOD. CURRENT PERIOD IS:      12

 PROCESSING AG STRESS PERIOD DATA

 READING AG STRESS PERIOD DATA

 READING IRRIGATION WELL

 END PROCESSING AG STRESS PERIOD DATA OPTIONS
 
 SOLVING FOR HEAD 
                                                   Max.-Head-Change                         Max.-Flux-Residual
  Residual-Control   Outer-Iter.   Inner-Iter.     Column Row Layer    Maximum-Head-Change  Column Row Layer    Maximum-Flux-Residual          L2-NORM 
          0                 1           2             4    7     1       0.3313623149E-01       4    7    1         0.1747914219E+01      0.3983021264E+01
          0                 2           2             4    7     1      -0.3221535200E-02       4    7    1        -0.1746985777E+00      0.3980749487E+00
          0                 3           2             4    7     1       0.2192097466E-03       4    7    1         0.1221970455E-01      0.2784353112E-01
          0                 4           1             4    7     1      -0.8711664074E-05       4    7    1        -0.4991616311E-03      0.1137387006E-02

    ------------------------------------------------
       NWT REQUIRED            4 OUTER ITERATIONS 
       AND A TOTAL OF          7 INNER ITERATIONS.
    ------------------------------------------------

 NO OUTPUT CONTROL FOR STRESS PERIOD   12   TIME STEP    1
 
 SOLVING FOR HEAD 
                                                   Max.-Head-Change                         Max.-Flux-Residual
  Residual-Control   Outer-Iter.   Inner-Iter.     Column Row Layer    Maximum-Head-Change  Column Row Layer    Maximum-Flux-Residual          L2-NORM 
          0                 1           2             4    7     1       0.3264818969E-01       4    7    1         0.1721710949E+01      0.3940427532E+01
          0                 2           2             4    7     1      -0.3174086479E-02       4    7    1        -0.1720795860E+00      0.3938030812E+00
          0                 3           2             4    7     1       0.2159810612E-03       4    7    1         0.1203651088E-01      0.2754344301E-01
          0                 4           1             4    7     1      -0.8583349643E-05       4    7    1        -0.4916782127E-03      0.1125006182E-02

    ------------------------------------------------
       NWT REQUIRED            4 OUTER ITERATIONS 
       AND A TOTAL OF          7 INNER ITERATIONS.
    ------------------------------------------------

 NO OUTPUT CONTROL FOR STRESS PERIOD   12   TIME STEP    2
 
 SOLVING FOR HEAD 
                                                   Max.-Head-Change                         Max.-Flux-Residual
  Residual-Control   Outer-Iter.   Inner-Iter.     Column Row Layer    Maximum-Head-Change  Column Row Layer    Maximum-Flux-Residual          L2-NORM 
          0                 1           2             4    7     1       0.3217535860E-01       4    7    1         0.1696347980E+01      0.3892686629E+01
          0                 2           2             4    7     1      -0.3128116632E-02       4    7    1        -0.1695445840E+00      0.3890422620E+00
          0                 3           2             4    7     1       0.2128530078E-03       4    7    1         0.1185919225E-01      0.2721151754E-01
          0                 4           1             4    7     1      -0.8459034975E-05       4    7    1        -0.4844347959E-03      0.1111671142E-02

    ------------------------------------------------
       NWT REQUIRED            4 OUTER ITERATIONS 
       AND A TOTAL OF          7 INNER ITERATIONS.
    ------------------------------------------------

 NO OUTPUT CONTROL FOR STRESS PERIOD   12   TIME STEP    3
 
 SOLVING FOR HEAD 
                                                   Max.-Head-Change                         Max.-Flux-Residual
  Residual-Control   Outer-Iter.   Inner-Iter.     Column Row Layer    Maximum-Head-Change  Column Row Layer    Maximum-Flux-Residual          L2-NORM 
          0                 1           2             4    7     1       0.3171695051E-01       4    7    1         0.1671780994E+01      0.3846215199E+01
          0                 2           2             4    7     1      -0.3083549154E-02       4    7    1        -0.1670891419E+00      0.3844066944E+00
          0                 3           2             4    7     1       0.2098203824E-03       4    7    1         0.1168743879E-01      0.2688795865E-01
          0                 4           1             4    7     1      -0.8338512841E-05       4    7    1        -0.4774187169E-03      0.1098458942E-02

    ------------------------------------------------
       NWT REQUIRED            4 OUTER ITERATIONS 
       AND A TOTAL OF          7 INNER ITERATIONS.
    ------------------------------------------------

 NO OUTPUT CONTROL FOR STRESS PERIOD   12   TIME STEP    4
 
 SOLVING FOR HEAD 
                                                   Max.-Head-Change                         Max.-Flux-Residual
  Residual-Control   Outer-Iter.   Inner-Iter.     Column Row Layer    Maximum-Head-Change  Column Row Layer    Maximum-Flux-Residual          L2-NORM 
          0                 1           2             4    7     1       0.3127224982E-01       4    7    1         0.1647969147E+01      0.3800947092E+01
          0                 2           2             4    7     1      -0.3040314275E-02       4    7    1        -0.1647091773E+00      0.3798901479E+00
          0                 3           2             4    7     1       0.2068784359E-03       4    7    1         0.1152096492E-01      0.2657273629E-01
          0                 4           1             4    7     1      -0.8221594316E-05       4    7    1        -0.4706183008E-03      0.1085640413E-02

    ------------------------------------------------
       NWT REQUIRED            4 OUTER ITERATIONS 
       AND A TOTAL OF          7 INNER ITERATIONS.
    ------------------------------------------------

 NO OUTPUT CONTROL FOR STRESS PERIOD   12   TIME STEP    5
 
 SOLVING FOR HEAD 
                                                   Max.-Head-Change                         Max.-Flux-Residual
  Residual-Control   Outer-Iter.   Inner-Iter.     Column Row Layer    Maximum-Head-Change  Column Row Layer    Maximum-Flux-Residual          L2-NORM 
          0                 1           2             4    7     1       0.3084031999E-01       4    7    1         0.1624860676E+01      0.3756784107E+01
          0                 2           2             4    7     1      -0.2998321041E-02       4    7    1        -0.1623995162E+00      0.3754830594E+00
          0                 3           2             4    7     1       0.2040209802E-03       4    7    1         0.1135940875E-01      0.2626509457E-01
          0                 4           1             4    7     1      -0.8108033947E-05       4    7    1        -0.4640187994E-03      0.1073004150E-02

    ------------------------------------------------
       NWT REQUIRED            4 OUTER ITERATIONS 
       AND A TOTAL OF          7 INNER ITERATIONS.
    ------------------------------------------------

 NO OUTPUT CONTROL FOR STRESS PERIOD   12   TIME STEP    6
 
 SOLVING FOR HEAD 
                                                   Max.-Head-Change                         Max.-Flux-Residual
  Residual-Control   Outer-Iter.   Inner-Iter.     Column Row Layer    Maximum-Head-Change  Column Row Layer    Maximum-Flux-Residual          L2-NORM 
          0                 1           2             4    7     1       0.3042042833E-01       4    7    1         0.1602414350E+01      0.3713660745E+01
          0                 2           2             4    7     1      -0.2957498217E-02       4    7    1        -0.1601560376E+00      0.3711783521E+00
          0                 3           2             4    7     1       0.2012431665E-03       4    7    1         0.1120248198E-01      0.2596450201E-01
          0                 4           1             4    7     1      -0.7997638552E-05       4    7    1        -0.4576083948E-03      0.1060745177E-02

    ------------------------------------------------
       NWT REQUIRED            4 OUTER ITERATIONS 
       AND A TOTAL OF          7 INNER ITERATIONS.
    ------------------------------------------------

 NO OUTPUT CONTROL FOR STRESS PERIOD   12   TIME STEP    7
 
 SOLVING FOR HEAD 
                                                   Max.-Head-Change                         Max.-Flux-Residual
  Residual-Control   Outer-Iter.   Inner-Iter.     Column Row Layer    Maximum-Head-Change  Column Row Layer    Maximum-Flux-Residual          L2-NORM 
          0                 1           2             4    7     1       0.3001203201E-01       4    7    1         0.1580599520E+01      0.3671512557E+01
          0                 2           2             4    7     1      -0.2917793024E-02       4    7    1        -0.1579756778E+00      0.3669709182E+00
          0                 3           2             4    7     1       0.1985414043E-03       4    7    1         0.1104997033E-01      0.2567067262E-01
          0                 4           1             4    7     1      -0.7890265601E-05       4    7    1        -0.4513783551E-03      0.1048803178E-02

    ------------------------------------------------
       NWT REQUIRED            4 OUTER ITERATIONS 
       AND A TOTAL OF          7 INNER ITERATIONS.
    ------------------------------------------------

 NO OUTPUT CONTROL FOR STRESS PERIOD   12   TIME STEP    8
 
 SOLVING FOR HEAD 
                                                   Max.-Head-Change                         Max.-Flux-Residual
  Residual-Control   Outer-Iter.   Inner-Iter.     Column Row Layer    Maximum-Head-Change  Column Row Layer    Maximum-Flux-Residual          L2-NORM 
          0                 1           2             4    7     1       0.2961449836E-01       4    7    1         0.1559380703E+01      0.3630301535E+01
          0                 2           2             4    7     1      -0.2879143950E-02       4    7    1        -0.1558548904E+00      0.3628567024E+00
          0                 3           2             4    7     1       0.1959115077E-03       4    7    1         0.1090162572E-01      0.2538327614E-01
          0                 4           1             4    7     1      -0.7785749427E-05       4    7    1        -0.4453185657E-03      0.1037016463E-02

    ------------------------------------------------
       NWT REQUIRED            4 OUTER ITERATIONS 
       AND A TOTAL OF          7 INNER ITERATIONS.
    ------------------------------------------------

 NO OUTPUT CONTROL FOR STRESS PERIOD   12   TIME STEP    9
 
 SOLVING FOR HEAD 
                                                   Max.-Head-Change                         Max.-Flux-Residual
  Residual-Control   Outer-Iter.   Inner-Iter.     Column Row Layer    Maximum-Head-Change  Column Row Layer    Maximum-Flux-Residual          L2-NORM 
          0                 1           2             4    7     1       0.2922723782E-01       4    7    1         0.1538725097E+01      0.3589953909E+01
          0                 2           2             4    7     1      -0.2841493676E-02       4    7    1        -0.1537903966E+00      0.3588277947E+00
          0                 3           2             4    7     1       0.1933495761E-03       4    7    1         0.1075721880E-01      0.2510182087E-01
          0                 4           1             4    7     1      -0.7683933801E-05       4    7    1        -0.4394196148E-03      0.1025558108E-02

    ------------------------------------------------
       NWT REQUIRED            4 OUTER ITERATIONS 
       AND A TOTAL OF          7 INNER ITERATIONS.
    ------------------------------------------------

 NO OUTPUT CONTROL FOR STRESS PERIOD   12   TIME STEP   10
 
 SOLVING FOR HEAD 
                                                   Max.-Head-Change                         Max.-Flux-Residual
  Residual-Control   Outer-Iter.   Inner-Iter.     Column Row Layer    Maximum-Head-Change  Column Row Layer    Maximum-Flux-Residual          L2-NORM 
          0                 1           2             4    7     1       0.2884984107E-01       4    7    1         0.1518609473E+01      0.3550446036E+01
          0                 2           2             4    7     1      -0.2804802402E-02       4    7    1        -0.1517798746E+00      0.3548821526E+00
          0                 3           2             4    7     1       0.1908529011E-03       4    7    1         0.1061658716E-01      0.2482611166E-01
          0                 4           1             4    7     1      -0.7584711654E-05       4    7    1        -0.4336748852E-03      0.1014350278E-02

    ------------------------------------------------
       NWT REQUIRED            4 OUTER ITERATIONS 
       AND A TOTAL OF          7 INNER ITERATIONS.
    ------------------------------------------------

 NO OUTPUT CONTROL FOR STRESS PERIOD   12   TIME STEP   11
 
 SOLVING FOR HEAD 
                                                   Max.-Head-Change                         Max.-Flux-Residual
  Residual-Control   Outer-Iter.   Inner-Iter.     Column Row Layer    Maximum-Head-Change  Column Row Layer    Maximum-Flux-Residual          L2-NORM 
          0                 1           2             4    7     1       0.2848152516E-01       4    7    1         0.1498990590E+01      0.3511717413E+01
          0                 2           2             4    7     1      -0.2768994007E-02       4    7    1        -0.1498190023E+00      0.3510143340E+00
          0                 3           2             4    7     1       0.1884163031E-03       4    7    1         0.1047942846E-01      0.2455593279E-01
          0                 4           1             4    7     1      -0.7487877484E-05       4    7    1        -0.4280720386E-03      0.1003327395E-02

    ------------------------------------------------
       NWT REQUIRED            4 OUTER ITERATIONS 
       AND A TOTAL OF          7 INNER ITERATIONS.
    ------------------------------------------------

 NO OUTPUT CONTROL FOR STRESS PERIOD   12   TIME STEP   12
 
 SOLVING FOR HEAD 
                                                   Max.-Head-Change                         Max.-Flux-Residual
  Residual-Control   Outer-Iter.   Inner-Iter.     Column Row Layer    Maximum-Head-Change  Column Row Layer    Maximum-Flux-Residual          L2-NORM 
          0                 1           2             4    7     1       0.2812223211E-01       4    7    1         0.1479864551E+01      0.3473756079E+01
          0                 2           2             4    7     1      -0.2734062854E-02       4    7    1        -0.1479073903E+00      0.3472224992E+00
          0                 3           2             4    7     1       0.1860393982E-03       4    7    1         0.1034571547E-01      0.2429080054E-01
          0                 4           1             4    7     1      -0.7393415633E-05       4    7    1        -0.4226099427E-03      0.9924918584E-03

    ------------------------------------------------
       NWT REQUIRED            4 OUTER ITERATIONS 
       AND A TOTAL OF          7 INNER ITERATIONS.
    ------------------------------------------------

 NO OUTPUT CONTROL FOR STRESS PERIOD   12   TIME STEP   13
 
 SOLVING FOR HEAD 
                                                   Max.-Head-Change                         Max.-Flux-Residual
  Residual-Control   Outer-Iter.   Inner-Iter.     Column Row Layer    Maximum-Head-Change  Column Row Layer    Maximum-Flux-Residual          L2-NORM 
          0                 1           2             4    7     1       0.2777110891E-01       4    7    1         0.1461184312E+01      0.3436501494E+01
          0                 2           2             4    7     1      -0.2699926009E-02       4    7    1        -0.1460403363E+00      0.3435009850E+00
          0                 3           2             4    7     1       0.1837165436E-03       4    7    1         0.1021511927E-01      0.2403057282E-01
          0                 4           1             4    7     1      -0.7301101833E-05       4    7    1        -0.4172751756E-03      0.9818678769E-03

    ------------------------------------------------
       NWT REQUIRED            4 OUTER ITERATIONS 
       AND A TOTAL OF          7 INNER ITERATIONS.
    ------------------------------------------------

 NO OUTPUT CONTROL FOR STRESS PERIOD   12   TIME STEP   14
 
 SOLVING FOR HEAD 
                                                   Max.-Head-Change                         Max.-Flux-Residual
  Residual-Control   Outer-Iter.   Inner-Iter.     Column Row Layer    Maximum-Head-Change  Column Row Layer    Maximum-Flux-Residual          L2-NORM 
          0                 1           2             4    7     1       0.2742816288E-01       4    7    1         0.1442949686E+01      0.3399952830E+01
          0                 2           2             4    7     1      -0.2666584180E-02       4    7    1        -0.1442178217E+00      0.3398497636E+00
          0                 3           2             4    7     1       0.1814477866E-03       4    7    1         0.1008763855E-01      0.2377540111E-01
          0                 4           1             4    7     1      -0.7210938041E-05       4    7    1        -0.4120676736E-03      0.9714680402E-03

    ------------------------------------------------
       NWT REQUIRED            4 OUTER ITERATIONS 
       AND A TOTAL OF          7 INNER ITERATIONS.
    ------------------------------------------------

 NO OUTPUT CONTROL FOR STRESS PERIOD   12   TIME STEP   15
 
 SOLVING FOR HEAD 
                                                   Max.-Head-Change                         Max.-Flux-Residual
  Residual-Control   Outer-Iter.   Inner-Iter.     Column Row Layer    Maximum-Head-Change  Column Row Layer    Maximum-Flux-Residual          L2-NORM 
          0                 1           2             4    7     1       0.2709286895E-01       4    7    1         0.1425131691E+01      0.3364062623E+01
          0                 2           2             4    7     1      -0.2633986319E-02       4    7    1        -0.1424369496E+00      0.3362642055E+00
          0                 3           2             4    7     1       0.1792296538E-03       4    7    1         0.9963070666E-02      0.2352473827E-01
          0                 4           1             4    7     1      -0.7122785874E-05       4    7    1        -0.4069791462E-03      0.9612174138E-03

    ------------------------------------------------
       NWT REQUIRED            4 OUTER ITERATIONS 
       AND A TOTAL OF          7 INNER ITERATIONS.
    ------------------------------------------------

 NO OUTPUT CONTROL FOR STRESS PERIOD   12   TIME STEP   16
 
 SOLVING FOR HEAD 
                                                   Max.-Head-Change                         Max.-Flux-Residual
  Residual-Control   Outer-Iter.   Inner-Iter.     Column Row Layer    Maximum-Head-Change  Column Row Layer    Maximum-Flux-Residual          L2-NORM 
          0                 1           2             4    7     1       0.2676473378E-01       4    7    1         0.1407703103E+01      0.3328805121E+01
          0                 2           2             4    7     1      -0.2602084461E-02       4    7    1        -0.1406949989E+00      0.3327417172E+00
          0                 3           2             4    7     1       0.1770588815E-03       4    7    1         0.9841225278E-02      0.2327866768E-01
          0                 4           1             4    7     1      -0.7036516158E-05       4    7    1        -0.4020018523E-03      0.9512041307E-03

    ------------------------------------------------
       NWT REQUIRED            4 OUTER ITERATIONS 
       AND A TOTAL OF          7 INNER ITERATIONS.
    ------------------------------------------------

 NO OUTPUT CONTROL FOR STRESS PERIOD   12   TIME STEP   17
 
 SOLVING FOR HEAD 
                                                   Max.-Head-Change                         Max.-Flux-Residual
  Residual-Control   Outer-Iter.   Inner-Iter.     Column Row Layer    Maximum-Head-Change  Column Row Layer    Maximum-Flux-Residual          L2-NORM 
          0                 1           2             4    7     1       0.2644370400E-01       4    7    1         0.1390660366E+01      0.3294170405E+01
          0                 2           2             4    7     1      -0.2570873415E-02       4    7    1        -0.1389916142E+00      0.3292809661E+00
          0                 3           2             4    7     1       0.1749351167E-03       4    7    1         0.9722077526E-02      0.2303649809E-01
          0                 4           1             4    7     1      -0.6952114963E-05       4    7    1        -0.3971347778E-03      0.9412809796E-03

    ------------------------------------------------
       NWT REQUIRED            4 OUTER ITERATIONS 
       AND A TOTAL OF          7 INNER ITERATIONS.
    ------------------------------------------------

 NO OUTPUT CONTROL FOR STRESS PERIOD   12   TIME STEP   18
 
 SOLVING FOR HEAD 
                                                   Max.-Head-Change                         Max.-Flux-Residual
  Residual-Control   Outer-Iter.   Inner-Iter.     Column Row Layer    Maximum-Head-Change  Column Row Layer    Maximum-Flux-Residual          L2-NORM 
          0                 1           2             4    7     1       0.2612932609E-01       4    7    1         0.1373978689E+01      0.3260129940E+01
          0                 2           2             4    7     1      -0.2540309090E-02       4    7    1        -0.1373243175E+00      0.3258796155E+00
          0                 3           2             4    7     1       0.1728553587E-03       4    7    1         0.9605454120E-02      0.2279864733E-01
          0                 4           1             4    7     1      -0.6869462210E-05       4    7    1        -0.3923707950E-03      0.9316151154E-03

    ------------------------------------------------
       NWT REQUIRED            4 OUTER ITERATIONS 
       AND A TOTAL OF          7 INNER ITERATIONS.
    ------------------------------------------------

 NO OUTPUT CONTROL FOR STRESS PERIOD   12   TIME STEP   19
 
 SOLVING FOR HEAD 
                                                   Max.-Head-Change                         Max.-Flux-Residual
  Residual-Control   Outer-Iter.   Inner-Iter.     Column Row Layer    Maximum-Head-Change  Column Row Layer    Maximum-Flux-Residual          L2-NORM 
          0                 1           2             4    7     1       0.2582131188E-01       4    7    1         0.1357641900E+01      0.3226662291E+01
          0                 2           2             4    7     1      -0.2510363466E-02       4    7    1        -0.1356914924E+00      0.3225353866E+00
          0                 3           2             4    7     1       0.1708177006E-03       4    7    1         0.9491241904E-02      0.2256479108E-01
          0                 4           1             4    7     1      -0.6788482953E-05       4    7    1        -0.3877053191E-03      0.9220756302E-03

    ------------------------------------------------
       NWT REQUIRED            4 OUTER ITERATIONS 
       AND A TOTAL OF          7 INNER ITERATIONS.
    ------------------------------------------------

 NO OUTPUT CONTROL FOR STRESS PERIOD   12   TIME STEP   20
 
 SOLVING FOR HEAD 
                                                   Max.-Head-Change                         Max.-Flux-Residual
  Residual-Control   Outer-Iter.   Inner-Iter.     Column Row Layer    Maximum-Head-Change  Column Row Layer    Maximum-Flux-Residual          L2-NORM 
          0                 1           2             4    7     1       0.2551953125E-01       4    7    1         0.1341642400E+01      0.3193759468E+01
          0                 2           2             4    7     1      -0.2481023892E-02       4    7    1        -0.1340923794E+00      0.3192474615E+00
          0                 3           2             4    7     1       0.1688212825E-03       4    7    1         0.9379387845E-02      0.2233486224E-01
          0                 4           1             4    7     1      -0.6709142422E-05       4    7    1        -0.3831361764E-03      0.9126806100E-03

    ------------------------------------------------
       NWT REQUIRED            4 OUTER ITERATIONS 
       AND A TOTAL OF          7 INNER ITERATIONS.
    ------------------------------------------------

 NO OUTPUT CONTROL FOR STRESS PERIOD   12   TIME STEP   21
 
 SOLVING FOR HEAD 
                                                   Max.-Head-Change                         Max.-Flux-Residual
  Residual-Control   Outer-Iter.   Inner-Iter.     Column Row Layer    Maximum-Head-Change  Column Row Layer    Maximum-Flux-Residual          L2-NORM 
          0                 1           2             4    7     1       0.2522358751E-01       4    7    1         0.1325958757E+01      0.3161391725E+01
          0                 2           2             4    7     1      -0.2452251801E-02       4    7    1        -0.1325248362E+00      0.3160129214E+00
          0                 3           2             4    7     1       0.1668634788E-03       4    7    1         0.9269742015E-02      0.2210864346E-01
          0                 4           1             4    7     1      -0.6631337002E-05       4    7    1        -0.3786572415E-03      0.9034216710E-03

    ------------------------------------------------
       NWT REQUIRED            4 OUTER ITERATIONS 
       AND A TOTAL OF          7 INNER ITERATIONS.
    ------------------------------------------------

 NO OUTPUT CONTROL FOR STRESS PERIOD   12   TIME STEP   22
 
 SOLVING FOR HEAD 
                                                   Max.-Head-Change                         Max.-Flux-Residual
  Residual-Control   Outer-Iter.   Inner-Iter.     Column Row Layer    Maximum-Head-Change  Column Row Layer    Maximum-Flux-Residual          L2-NORM 
          0                 1           2             4    7     1       0.2493324813E-01       4    7    1         0.1310577745E+01      0.3129550408E+01
          0                 2           2             4    7     1      -0.2424024584E-02       4    7    1        -0.1309875410E+00      0.3128313048E+00
          0                 3           2             4    7     1       0.1649427515E-03       4    7    1         0.9162211995E-02      0.2188614560E-01
          0                 4           1             4    7     1      -0.6555004179E-05       4    7    1        -0.3742647204E-03      0.8943310172E-03

    ------------------------------------------------
       NWT REQUIRED            4 OUTER ITERATIONS 
       AND A TOTAL OF          7 INNER ITERATIONS.
    ------------------------------------------------

 NO OUTPUT CONTROL FOR STRESS PERIOD   12   TIME STEP   23
 
 SOLVING FOR HEAD 
                                                   Max.-Head-Change                         Max.-Flux-Residual
  Residual-Control   Outer-Iter.   Inner-Iter.     Column Row Layer    Maximum-Head-Change  Column Row Layer    Maximum-Flux-Residual          L2-NORM 
          0                 1           2             4    7     1       0.2464855936E-01       4    7    1         0.1295501998E+01      0.3098216240E+01
          0                 2           2             4    7     1      -0.2396346738E-02       4    7    1        -0.1294807569E+00      0.3096995227E+00
          0                 3           2             4    7     1       0.1630594072E-03       4    7    1         0.9056816175E-02      0.2166709586E-01
          0                 4           1             4    7     1      -0.6480157769E-05       4    7    1        -0.3699594045E-03      0.8853428110E-03

    ------------------------------------------------
       NWT REQUIRED            4 OUTER ITERATIONS 
       AND A TOTAL OF          7 INNER ITERATIONS.
    ------------------------------------------------

 NO OUTPUT CONTROL FOR STRESS PERIOD   12   TIME STEP   24
 
 SOLVING FOR HEAD 
                                                   Max.-Head-Change                         Max.-Flux-Residual
  Residual-Control   Outer-Iter.   Inner-Iter.     Column Row Layer    Maximum-Head-Change  Column Row Layer    Maximum-Flux-Residual          L2-NORM 
          0                 1           2             4    7     1       0.2436903269E-01       4    7    1         0.1280704535E+01      0.3067368840E+01
          0                 2           2             4    7     1      -0.2369170769E-02       4    7    1        -0.1280017873E+00      0.3066166449E+00
          0                 3           2             4    7     1       0.1612102131E-03       4    7    1         0.8953365942E-02      0.2145144952E-01
          0                 4           1             4    7     1      -0.6406668368E-05       4    7    1        -0.3657335492E-03      0.8765598264E-03

    ------------------------------------------------
       NWT REQUIRED            4 OUTER ITERATIONS 
       AND A TOTAL OF          7 INNER ITERATIONS.
    ------------------------------------------------

 NO OUTPUT CONTROL FOR STRESS PERIOD   12   TIME STEP   25
 
 SOLVING FOR HEAD 
                                                   Max.-Head-Change                         Max.-Flux-Residual
  Residual-Control   Outer-Iter.   Inner-Iter.     Column Row Layer    Maximum-Head-Change  Column Row Layer    Maximum-Flux-Residual          L2-NORM 
          0                 1           2             4    7     1       0.2409461341E-01       4    7    1         0.1266182063E+01      0.3037018758E+01
          0                 2           2             4    7     1      -0.2342491355E-02       4    7    1        -0.1265503029E+00      0.3035835221E+00
          0                 3           2             4    7     1       0.1593948083E-03       4    7    1         0.8851838265E-02      0.2123932850E-01
          0                 4           1             4    7     1      -0.6334521700E-05       4    7    1        -0.3615862402E-03      0.8679039226E-03

    ------------------------------------------------
       NWT REQUIRED            4 OUTER ITERATIONS 
       AND A TOTAL OF          7 INNER ITERATIONS.
    ------------------------------------------------

 NO OUTPUT CONTROL FOR STRESS PERIOD   12   TIME STEP   26
 
 SOLVING FOR HEAD 
                                                   Max.-Head-Change                         Max.-Flux-Residual
  Residual-Control   Outer-Iter.   Inner-Iter.     Column Row Layer    Maximum-Head-Change  Column Row Layer    Maximum-Flux-Residual          L2-NORM 
          0                 1           2             4    7     1       0.2382511100E-01       4    7    1         0.1251924400E+01      0.3007129429E+01
          0                 2           2             4    7     1      -0.2316289974E-02       4    7    1        -0.1251252860E+00      0.3005963495E+00
          0                 3           2             4    7     1       0.1576119311E-03       4    7    1         0.8752161929E-02      0.2103043353E-01
          0                 4           1             4    7     1      -0.6263668030E-05       4    7    1        -0.3575145538E-03      0.8593940186E-03

    ------------------------------------------------
       NWT REQUIRED            4 OUTER ITERATIONS 
       AND A TOTAL OF          7 INNER ITERATIONS.
    ------------------------------------------------

 NO OUTPUT CONTROL FOR STRESS PERIOD   12   TIME STEP   27
 
 SOLVING FOR HEAD 
                                                   Max.-Head-Change                         Max.-Flux-Residual
  Residual-Control   Outer-Iter.   Inner-Iter.     Column Row Layer    Maximum-Head-Change  Column Row Layer    Maximum-Flux-Residual          L2-NORM 
          0                 1           2             4    7     1       0.2356035359E-01       4    7    1         0.1237921668E+01      0.2977700973E+01
          0                 2           2             4    7     1      -0.2290549916E-02       4    7    1        -0.1237257492E+00      0.2976551434E+00
          0                 3           2             4    7     1       0.1558604448E-03       4    7    1         0.8654267870E-02      0.2082469962E-01
          0                 4           1             4    7     1      -0.6194061538E-05       4    7    1        -0.3535156693E-03      0.8509893988E-03

    ------------------------------------------------
       NWT REQUIRED            4 OUTER ITERATIONS 
       AND A TOTAL OF          7 INNER ITERATIONS.
    ------------------------------------------------

 NO OUTPUT CONTROL FOR STRESS PERIOD   12   TIME STEP   28
 
 SOLVING FOR HEAD 
                                                   Max.-Head-Change                         Max.-Flux-Residual
  Residual-Control   Outer-Iter.   Inner-Iter.     Column Row Layer    Maximum-Head-Change  Column Row Layer    Maximum-Flux-Residual          L2-NORM 
          0                 1           2             4    7     1       0.2330017496E-01       4    7    1         0.1224164955E+01      0.2948718932E+01
          0                 2           2             4    7     1      -0.2265255020E-02       4    7    1        -0.1223508020E+00      0.2947585766E+00
          0                 3           2             4    7     1       0.1541392503E-03       4    7    1         0.8558093827E-02      0.2062205168E-01
          0                 4           1             4    7     1      -0.6125659050E-05       4    7    1        -0.3495870542E-03      0.8426880944E-03

    ------------------------------------------------
       NWT REQUIRED            4 OUTER ITERATIONS 
       AND A TOTAL OF          7 INNER ITERATIONS.
    ------------------------------------------------

 NO OUTPUT CONTROL FOR STRESS PERIOD   12   TIME STEP   29
 
 SOLVING FOR HEAD 
                                                   Max.-Head-Change                         Max.-Flux-Residual
  Residual-Control   Outer-Iter.   Inner-Iter.     Column Row Layer    Maximum-Head-Change  Column Row Layer    Maximum-Flux-Residual          L2-NORM 
          0                 1           2             4    7     1       0.2304441486E-01       4    7    1         0.1210645644E+01      0.2921319402E+01
          0                 2           2             4    7     1      -0.2240389706E-02       4    7    1        -0.1209995828E+00      0.2920166211E+00
          0                 3           2             4    7     1       0.1524472868E-03       4    7    1         0.8463579490E-02      0.2042997208E-01
          0                 4           1             4    7     1      -0.6058418084E-05       4    7    1        -0.3457262455E-03      0.8348209065E-03

    ------------------------------------------------
       NWT REQUIRED            4 OUTER ITERATIONS 
       AND A TOTAL OF          7 INNER ITERATIONS.
    ------------------------------------------------

 NO OUTPUT CONTROL FOR STRESS PERIOD   12   TIME STEP   30



 STREAM LISTING     PERIOD     12   STEP       30

 LAYER ROW COL. STREAM  RCH.  FLOW INTO     FLOW TO   FLOW OUT OF   OVRLND.     DIRECT     STREAM       STREAM     STREAM     STREAM   STREAMBED  STREAMBED
                SEG.NO.  NO.  STRM. RCH.    AQUIFER    STRM. RCH.    RUNOFF     PRECIP       ET          HEAD       DEPTH      WIDTH   CONDCTNC.   GRADIENT

   1    1    1     1     1    2.5441E+01  2.4717E-01   2.5194E+01  0.000E+00  0.000E+00  0.000E+00  1.09423E+03  1.185E+00  1.313E+01  5.906E-02  1.395E+00
   1    2    2     1     2    2.5194E+01  3.8224E-01   2.4811E+01  0.000E+00  0.000E+00  0.000E+00  1.08924E+03  1.180E+00  1.306E+01  9.144E-02  1.393E+00
   1    3    3     1     3    2.4811E+01  3.2545E-01   2.4486E+01  0.000E+00  0.000E+00  0.000E+00  1.08359E+03  1.175E+00  1.299E+01  7.795E-02  1.392E+00
   1    3    4     1     4    2.4486E+01  2.9925E-01   2.4187E+01  0.000E+00  0.000E+00  0.000E+00  1.07858E+03  1.170E+00  1.293E+01  7.176E-02  1.390E+00
   1    4    5     2     1    2.2187E+01  3.2130E-01   2.1865E+01  0.000E+00  0.000E+00  0.000E+00  1.07305E+03  1.119E+00  1.200E+01  7.800E-02  1.373E+00
   1    5    6     2     2    2.1865E+01  2.4663E-01   2.1619E+01  0.000E+00  0.000E+00  0.000E+00  1.06762E+03  1.111E+00  1.200E+01  6.000E-02  1.370E+00
   1    6    6     2     3    2.1619E+01  2.4618E-01   2.1373E+01  0.000E+00  0.000E+00  0.000E+00  1.06290E+03  1.103E+00  1.200E+01  6.000E-02  1.368E+00
   1    7    6     2     4    2.1373E+01  2.4572E-01   2.1127E+01  0.000E+00  0.000E+00  0.000E+00  1.05817E+03  1.095E+00  1.200E+01  6.000E-02  1.365E+00
   1    8    6     2     5    2.1127E+01  2.4527E-01   2.0882E+01  0.000E+00  0.000E+00  0.000E+00  1.05345E+03  1.088E+00  1.200E+01  6.000E-02  1.363E+00
   1    3    5     3     1    2.0000E+00  2.8252E-01   1.7175E+00  0.000E+00  0.000E+00  0.000E+00  1.07555E+03  1.909E+00  9.636E+00  7.227E-02  1.955E+00
   1    3    6     3     2    1.7175E+00  2.4905E-01   1.4684E+00  0.000E+00  0.000E+00  0.000E+00  1.07264E+03  1.727E+00  8.909E+00  6.682E-02  1.864E+00
   1    3    7     3     3    1.4684E+00  1.9718E-01   1.2712E+00  0.000E+00  0.000E+00  0.000E+00  1.06987E+03  1.555E+00  8.218E+00  5.547E-02  1.777E+00
   1    4    8     3     4    1.2712E+00  2.2567E-01   1.0456E+00  0.000E+00  0.000E+00  0.000E+00  1.06682E+03  1.364E+00  7.455E+00  6.709E-02  1.682E+00
   1    5    8     3     5    1.0456E+00  1.5790E-01   8.8768E-01  0.000E+00  0.000E+00  0.000E+00  1.06362E+03  1.164E+00  6.655E+00  4.991E-02  1.582E+00
   1    6    8     3     6    8.8768E-01  5.5980E-02   8.3170E-01  0.000E+00  0.000E+00  0.000E+00  1.06158E+03  1.036E+00  6.145E+00  1.844E-02  1.518E+00
   1    5   10     4     1    1.0000E+01  9.0919E-02   9.9091E+00  0.000E+00  0.000E+00  0.000E+00  1.07836E+03  6.368E-01  1.000E+01  2.500E-02  1.212E+00
   1    5    9     4     2    9.9091E+00  1.8158E-01   9.7275E+00  0.000E+00  0.000E+00  0.000E+00  1.07154E+03  6.315E-01  1.000E+01  5.000E-02  1.211E+00
   1    6    8     4     3    9.7275E+00  1.2689E-01   9.6006E+00  0.000E+00  0.000E+00  0.000E+00  1.06381E+03  6.256E-01  1.000E+01  3.500E-02  1.209E+00
   1    6    8     5     1    1.0432E+01  2.2686E-01   1.0205E+01  0.000E+00  0.000E+00  0.000E+00  1.05868E+03  6.790E-01  1.542E+01  6.166E-02  1.226E+00
   1    7    7     5     2    1.0205E+01  2.7894E-01   9.9265E+00  0.000E+00  0.000E+00  0.000E+00  1.05417E+03  6.732E-01  1.519E+01  7.594E-02  1.224E+00
   1    8    7     5     3    9.9265E+00  1.9221E-01   9.7343E+00  0.000E+00  0.000E+00  0.000E+00  1.04992E+03  6.676E-01  1.497E+01  5.241E-02  1.223E+00
   1    8    6     5     4    9.7343E+00  1.3577E-01   9.5985E+00  0.000E+00  0.000E+00  0.000E+00  1.04691E+03  6.637E-01  1.482E+01  3.706E-02  1.221E+00
   1    9    6     6     1    3.0480E+01  2.6230E-01   3.0218E+01  0.000E+00  0.000E+00  0.000E+00  1.04410E+03  1.372E+00  1.200E+01  6.000E-02  1.457E+00
   1   10    7     6     2    3.0218E+01  2.6187E-01   2.9956E+01  0.000E+00  0.000E+00  0.000E+00  1.03955E+03  1.365E+00  1.200E+01  6.000E-02  1.455E+00
   1   11    7     6     3    2.9956E+01  2.6145E-01   2.9695E+01  0.000E+00  0.000E+00  0.000E+00  1.03499E+03  1.357E+00  1.200E+01  6.000E-02  1.452E+00
   1   12    7     6     4    2.9695E+01  2.6102E-01   2.9434E+01  0.000E+00  0.000E+00  0.000E+00  1.03044E+03  1.350E+00  1.200E+01  6.000E-02  1.450E+00
   1   13    7     6     5    2.9434E+01  1.4007E-03   2.9432E+01  0.000E+00  0.000E+00  0.000E+00  1.02726E+03  1.347E+00  1.200E+01  2.400E-02  1.945E-02
   1   14    9     7     1    1.5000E+02  1.3299E+00   1.4867E+02  0.000E+00  0.000E+00  0.000E+00  1.03987E+03  2.288E+00  5.529E+01  5.593E-01  7.926E-01
   1   13    8     7     2    1.4867E+02  1.7970E+00   1.4687E+02  0.000E+00  0.000E+00  0.000E+00  1.03478E+03  2.279E+00  5.526E+01  6.148E-01  9.743E-01
   1   13    7     7     3    1.4687E+02  1.3922E+00   1.4548E+02  0.000E+00  0.000E+00  0.000E+00  1.02969E+03  2.271E+00  5.522E+01  5.585E-01  8.309E-01
   1   13    6     8     1    1.7491E+02  8.6726E-01   1.7405E+02  0.000E+00  0.000E+00  0.000E+00  1.02486E+03  2.981E+00  4.323E+01  4.405E-01  6.563E-01
   1   13    5     8     2    1.7405E+02  1.2578E-01   1.7392E+02  0.000E+00  0.000E+00  0.000E+00  1.01860E+03  2.978E+00  4.318E+01  4.400E-01  9.528E-02
   1   13    4     8     3    1.7392E+02 -2.6004E+00   1.7652E+02  0.000E+00  0.000E+00  0.000E+00  1.01236E+03  2.986E+00  4.330E+01  4.412E+00 -1.965E-01
   1   13    3     8     4    1.7652E+02 -3.7563E+00   1.8028E+02  0.000E+00  0.000E+00  0.000E+00  1.00613E+03  3.006E+00  4.359E+01  4.442E+00 -2.819E-01
   1   13    2     8     5    1.8028E+02 -2.6290E+00   1.8291E+02  0.000E+00  0.000E+00  0.000E+00  9.99901E+02  3.026E+00  4.388E+01  4.471E+00 -1.960E-01
   1   13    1     8     6    1.8291E+02 -2.0231E+00   1.8493E+02  0.000E+00  0.000E+00  0.000E+00  9.94916E+02  3.041E+00  4.409E+01  2.696E+00 -2.502E-01





UNSATURATED ZONE PACKAGE VOLUMETRIC BUDGET FOR  TIME STEP    30 STRESS PERIOD   12
  ------------------------------------------------------------------------------



     CUMULATIVE VOLUMES      L**3       RATES FOR THIS TIME STEP      L**3/T
     ------------------                 ------------------------

           IN:                                      IN:
           ---                                      ---
        INFILTRATION =   500432070.8487          INFILTRATION =           0.8475

          OUT:                                     OUT:
          ----                                     ----
              UZF ET =   428083582.7057                UZF ET =           0.7500
        UZF RECHARGE =    72020404.1292          UZF RECHARGE =           0.0003

            IN - OUT =      328084.0138              IN - OUT =       9.7215E-02

          STORAGE:                                 STORAGE:
          --------                                 --------
      STORAGE CHANGE =      328076.8042        STORAGE CHANGE =       9.7215E-02

 PERCENT DISCREPANCY IS DIFFERENCE BETWEEN IN-OUT MINUS CHANGE IN STORAGE
 DIVIDED BY THE AVERAGE OF IN AND OUT TIMES 100

 PERCENT DISCREPANCY =           0.00     PERCENT DISCREPANCY =           0.00






1
  VOLUMETRIC BUDGET FOR AGRICULTURAL FIELDS AT  END OF TIME STEP   30, STRESS PERIOD  12
  ------------------------------------------------------------------------------

     CUMULATIVE VOLUMES      L**3       RATES FOR THIS TIME STEP      L**3/T
     ------------------                 ------------------------

           IN:                                      IN:
           ---                                      ---
               AG WELLS  =   475840128.0000                 AG WELLS  =           0.0000
      DIVERSION SEGMENTS =           0.0000        DIVERSION SEGMENTS =           0.0000
           GW IRRIGATION =           0.0000             GW IRRIGATION =           0.0000
           SW IRRIGATION =           0.0000             SW IRRIGATION =           0.0000
        SYSTEM LOSSES GW =           0.0000          SYSTEM LOSSES GW =           0.0000
        SYSTEM LOSSES SW =           0.0000          SYSTEM LOSSES SW =           0.0000

                TOTAL IN =   475840128.0000                  TOTAL IN =           0.0000

          OUT:                                     OUT:
          ----                                     ----
               AG WELLS  =           0.0000                 AG WELLS  =           0.0000
      DIVERSION SEGMENTS =           0.0000        DIVERSION SEGMENTS =           0.0000
           GW IRRIGATION =   475840128.0000             GW IRRIGATION =           0.0000
           SW IRRIGATION =           0.0000             SW IRRIGATION =           0.0000
        SYSTEM LOSSES GW =           0.0000          SYSTEM LOSSES GW =           0.0000
        SYSTEM LOSSES SW =           0.0000          SYSTEM LOSSES SW =           0.0000

               TOTAL OUT =   475840128.0000                 TOTAL OUT =           0.0000

                IN - OUT =           0.0000                  IN - OUT =           0.0000

     PERCENT DISCREPANCY =           0.00         PERCENT DISCREPANCY =           0.00



1
  VOLUMETRIC BUDGET FOR ENTIRE MODEL AT END OF TIME STEP   30, STRESS PERIOD  12
  ------------------------------------------------------------------------------

     CUMULATIVE VOLUMES      L**3       RATES FOR THIS TIME STEP      L**3/T
     ------------------                 ------------------------

           IN:                                      IN:
           ---                                      ---
             STORAGE     =   575259776.0000               STORAGE     =           8.7208
       CONSTANT HEAD     =           0.0000         CONSTANT HEAD     =           0.0000
     HEAD DEP BOUNDS     =     8282453.5000       HEAD DEP BOUNDS     =           0.2854
      STREAM LEAKAGE     =   364446752.0000        STREAM LEAKAGE     =          11.5208
        UZF RECHARGE     =    72020408.0000          UZF RECHARGE     =       2.8489E-04
               GW ET     =           0.0000                 GW ET     =           0.0000
     SURFACE LEAKAGE     =           0.0000       SURFACE LEAKAGE     =           0.0000
           AG WELLS      =           0.0000             AG WELLS      =           0.0000

                TOTAL IN =  1020009408.0000                  TOTAL IN =          20.5273

          OUT:                                     OUT:
          ----                                     ----
             STORAGE     =   222222992.0000               STORAGE     =           9.2272
       CONSTANT HEAD     =           0.0000         CONSTANT HEAD     =           0.0000
     HEAD DEP BOUNDS     =     8560173.0000       HEAD DEP BOUNDS     =           0.2913
      STREAM LEAKAGE     =   299630656.0000        STREAM LEAKAGE     =          11.0088
        UZF RECHARGE     =           0.0000          UZF RECHARGE     =           0.0000
               GW ET     =    13750637.0000                 GW ET     =           0.0000
     SURFACE LEAKAGE     =           0.0000       SURFACE LEAKAGE     =           0.0000
           AG WELLS      =   475840128.0000             AG WELLS      =           0.0000

               TOTAL OUT =  1020004608.0000                 TOTAL OUT =          20.5273

                IN - OUT =        4800.0000                  IN - OUT =       5.7220E-06

     PERCENT DISCREPANCY =           0.00         PERCENT DISCREPANCY =           0.00






         TIME SUMMARY AT END OF TIME STEP   30 IN STRESS PERIOD   12
                    SECONDS     MINUTES      HOURS       DAYS        YEARS
                    -----------------------------------------------------------
   TIME STEP LENGTH  87667.      1461.1      24.352      1.0147     2.77799E-03
 STRESS PERIOD TIME 2.63000E+06  43833.      730.56      30.440     8.33397E-02
         TOTAL TIME 2.90163E+07 4.83606E+05  8060.1      335.84     0.91947    
1
1
                            STRESS PERIOD NO.   13, LENGTH =   2630000.    
                            -----------------------------------------------

                              NUMBER OF TIME STEPS =    30

                               MULTIPLIER FOR DELT =     1.000

                            INITIAL TIME STEP SIZE =   87666.66    

 REUSING NON-PARAMETER GHB CELLS FROM LAST STRESS PERIOD

      2 GHB CELLS

 REUSING STREAM SEGMENT DATA FROM LAST STRESS PERIOD



            AREAL INFILTRATION RATE
 READING ON UNIT   19 WITH FORMAT: (FREE)              

            1           2           3           4           5           6           7           8           9          10
 ........................................................................................................................
   1   1.0000E-10  2.0000E-10   0.000       0.000       0.000       0.000       0.000       0.000       0.000       0.000    
   2   2.0000E-10  1.0000E-10  2.0000E-10   0.000       0.000      8.0000E-10  8.0000E-10  5.0000E-10   0.000       0.000    
   3    0.000      5.0000E-10  1.0000E-10  1.0000E-10  8.0000E-10  8.0000E-10  5.0000E-10  5.0000E-10   0.000       0.000    
   4   8.0000E-10  5.0000E-10  1.0000E-10  1.0000E-10  1.0000E-10  1.0000E-10  1.0000E-10  1.0000E-10  2.0000E-10   0.000    
   5   8.0000E-10  5.0000E-10  1.0000E-10  1.0000E-10  1.0000E-10  1.0000E-10  1.0000E-10  1.0000E-10  1.0000E-10  1.0000E-10
   6   8.0000E-10  5.0000E-10  5.0000E-10  2.0000E-10  2.0000E-10  1.0000E-10  1.0000E-10  1.0000E-10  1.0000E-10  5.0000E-10
   7   8.0000E-10  5.0000E-10  5.0000E-10  2.0000E-10  2.0000E-10  1.0000E-10  1.0000E-10  2.0000E-10  2.0000E-10   0.000    
   8    0.000      5.0000E-10  5.0000E-10  2.0000E-10  2.0000E-10  1.0000E-10  1.0000E-10  2.0000E-10  5.0000E-10   0.000    
   9    0.000      5.0000E-10  5.0000E-10  2.0000E-10  2.0000E-10  1.0000E-10  1.0000E-10  2.0000E-10  5.0000E-10   0.000    
  10    0.000      5.0000E-10  5.0000E-10  2.0000E-10  2.0000E-10  1.0000E-10  1.0000E-10  2.0000E-10  5.0000E-10  8.0000E-10
  11    0.000      1.0000E-10  1.0000E-10  1.0000E-10  1.0000E-10  1.0000E-10  1.0000E-10  2.0000E-10  5.0000E-10   0.000    
  12   1.0000E-10  1.0000E-10  1.0000E-10  1.0000E-10  1.0000E-10  1.0000E-10  1.0000E-10  1.0000E-10  2.0000E-10   0.000    
  13   1.0000E-10  1.0000E-10  2.0000E-10  2.0000E-10  2.0000E-10  2.0000E-10  2.0000E-10  1.0000E-10  1.0000E-10   0.000    
  14    0.000      2.0000E-10  5.0000E-10  5.0000E-10  5.0000E-10  5.0000E-10  5.0000E-10  2.0000E-10  1.0000E-10   0.000    
  15    0.000       0.000      8.0000E-10  8.0000E-10  8.0000E-10  8.0000E-10   0.000       0.000       0.000       0.000    

                  ET RATE =  5.000000E-10

 USING ET EXTINCTION DEPTH FROM PREVIOUS STRESS PERIOD. CURRENT PERIOD IS:      13

 USING EXTINCTION WATER CONTENT FROM PREVIOUS STRESS PERIOD. CURRENT PERIOD IS:      13

 USING AIR ENTRY PRESSURE FROM PREVIOUS STRESS PERIOD. CURRENT PERIOD IS:      13

 USING ROOT PRESSURE HEAD FROM PREVIOUS STRESS PERIOD. CURRENT PERIOD IS:      13

 USING ROOT ACTIVITY FROM PREVIOUS STRESS PERIOD. CURRENT PERIOD IS:      13

 PROCESSING AG STRESS PERIOD DATA

 READING AG STRESS PERIOD DATA

 READING IRRIGATION WELL

 END PROCESSING AG STRESS PERIOD DATA OPTIONS
 
 SOLVING FOR HEAD 
                                                   Max.-Head-Change                         Max.-Flux-Residual
  Residual-Control   Outer-Iter.   Inner-Iter.     Column Row Layer    Maximum-Head-Change  Column Row Layer    Maximum-Flux-Residual          L2-NORM 
          0                 1           2             4    7     1       0.2279290470E-01       4    7    1         0.1197355425E+01      0.2900003899E+01
          0                 2           2             4    7     1      -0.2215937584E-02       4    7    1        -0.1196712614E+00      0.2898450970E+00
          0                 3           2             4    7     1       0.1507834391E-03       4    7    1         0.8370666839E-02      0.2027596860E-01
          0                 4           1             4    7     1      -0.5992294431E-05       4    7    1        -0.3419308350E-03      0.8283864112E-03

    ------------------------------------------------
       NWT REQUIRED            4 OUTER ITERATIONS 
       AND A TOTAL OF          7 INNER ITERATIONS.
    ------------------------------------------------

 NO OUTPUT CONTROL FOR STRESS PERIOD   13   TIME STEP    1
 
 SOLVING FOR HEAD 
                                                   Max.-Head-Change                         Max.-Flux-Residual
  Residual-Control   Outer-Iter.   Inner-Iter.     Column Row Layer    Maximum-Head-Change  Column Row Layer    Maximum-Flux-Residual          L2-NORM 
          0                 1           2             4    7     1       0.2254551372E-01       4    7    1         0.1184285557E+01      0.2871799589E+01
          0                 2           2             4    7     1      -0.2191885939E-02       4    7    1        -0.1183649638E+00      0.2870466901E+00
          0                 3           2             4    7     1       0.1491468424E-03       4    7    1         0.8279294691E-02      0.2008047948E-01
          0                 4           1             4    7     1      -0.5927254245E-05       4    7    1        -0.3381983793E-03      0.8204638777E-03

    ------------------------------------------------
       NWT REQUIRED            4 OUTER ITERATIONS 
       AND A TOTAL OF          7 INNER ITERATIONS.
    ------------------------------------------------

 NO OUTPUT CONTROL FOR STRESS PERIOD   13   TIME STEP    2
 
 SOLVING FOR HEAD 
                                                   Max.-Head-Change                         Max.-Flux-Residual
  Residual-Control   Outer-Iter.   Inner-Iter.     Column Row Layer    Maximum-Head-Change  Column Row Layer    Maximum-Flux-Residual          L2-NORM 
          0                 1           2             4    7     1       0.2230224473E-01       4    7    1         0.1171436610E+01      0.2844042884E+01
          0                 2           2             4    7     1      -0.2168235045E-02       4    7    1        -0.1170807470E+00      0.2842750899E+00
          0                 3           2             4    7     1       0.1475375148E-03       4    7    1         0.8189467057E-02      0.1988683148E-01
          0                 4           1             4    7     1      -0.5863297524E-05       4    7    1        -0.3345290024E-03      0.8125899271E-03

    ------------------------------------------------
       NWT REQUIRED            4 OUTER ITERATIONS 
       AND A TOTAL OF          7 INNER ITERATIONS.
    ------------------------------------------------

 NO OUTPUT CONTROL FOR STRESS PERIOD   13   TIME STEP    3
 
 SOLVING FOR HEAD 
                                                   Max.-Head-Change                         Max.-Flux-Residual
  Residual-Control   Outer-Iter.   Inner-Iter.     Column Row Layer    Maximum-Head-Change  Column Row Layer    Maximum-Flux-Residual          L2-NORM 
          0                 1           2             4    7     1       0.2206283579E-01       4    7    1         0.1158794032E+01      0.2816734213E+01
          0                 2           2             4    7     1      -0.2144959434E-02       4    7    1        -0.1158171565E+00      0.2815480397E+00
          0                 3           2             4    7     1       0.1459537240E-03       4    7    1         0.8101082207E-02      0.1969635229E-01
          0                 4           1             4    7     1      -0.5800356114E-05       4    7    1        -0.3309185813E-03      0.8048094853E-03

    ------------------------------------------------
       NWT REQUIRED            4 OUTER ITERATIONS 
       AND A TOTAL OF          7 INNER ITERATIONS.
    ------------------------------------------------

 NO OUTPUT CONTROL FOR STRESS PERIOD   13   TIME STEP    4
 
 SOLVING FOR HEAD 
                                                   Max.-Head-Change                         Max.-Flux-Residual
  Residual-Control   Outer-Iter.   Inner-Iter.     Column Row Layer    Maximum-Head-Change  Column Row Layer    Maximum-Flux-Residual          L2-NORM 
          0                 1           2             4    7     1       0.2182730634E-01       4    7    1         0.1146358938E+01      0.2789859605E+01
          0                 2           2             4    7     1      -0.2122060997E-02       4    7    1        -0.1145743039E+00      0.2788639720E+00
          0                 3           2             4    7     1       0.1443955980E-03       4    7    1         0.8014147914E-02      0.1950866738E-01
          0                 4           1             4    7     1      -0.5738434043E-05       4    7    1        -0.3273674092E-03      0.7971378157E-03

    ------------------------------------------------
       NWT REQUIRED            4 OUTER ITERATIONS 
       AND A TOTAL OF          7 INNER ITERATIONS.
    ------------------------------------------------

 NO OUTPUT CONTROL FOR STRESS PERIOD   13   TIME STEP    5
 
 SOLVING FOR HEAD 
                                                   Max.-Head-Change                         Max.-Flux-Residual
  Residual-Control   Outer-Iter.   Inner-Iter.     Column Row Layer    Maximum-Head-Change  Column Row Layer    Maximum-Flux-Residual          L2-NORM 
          0                 1           2             4    7     1       0.2159540861E-01       4    7    1         0.1134117641E+01      0.2763412110E+01
          0                 2           2             4    7     1      -0.2099515645E-02       4    7    1        -0.1133508210E+00      0.2762222972E+00
          0                 3           2             4    7     1       0.1428614976E-03       4    7    1         0.7928568489E-02      0.1932407882E-01
          0                 4           1             4    7     1      -0.5677466956E-05       4    7    1        -0.3238715753E-03      0.7896286646E-03

    ------------------------------------------------
       NWT REQUIRED            4 OUTER ITERATIONS 
       AND A TOTAL OF          7 INNER ITERATIONS.
    ------------------------------------------------

 NO OUTPUT CONTROL FOR STRESS PERIOD   13   TIME STEP    6
 
 SOLVING FOR HEAD 
                                                   Max.-Head-Change                         Max.-Flux-Residual
  Residual-Control   Outer-Iter.   Inner-Iter.     Column Row Layer    Maximum-Head-Change  Column Row Layer    Maximum-Flux-Residual          L2-NORM 
          0                 1           2             4    7     1       0.2136717423E-01       4    7    1         0.1122071991E+01      0.2737373857E+01
          0                 2           2             4    7     1      -0.2077326451E-02       4    7    1        -0.1121468928E+00      0.2736213671E+00
          0                 3           2             4    7     1       0.1413516326E-03       4    7    1         0.7844356882E-02      0.1914227590E-01
          0                 4           1             4    7     1      -0.5617463487E-05       4    7    1        -0.3204316326E-03      0.7821701138E-03

    ------------------------------------------------
       NWT REQUIRED            4 OUTER ITERATIONS 
       AND A TOTAL OF          7 INNER ITERATIONS.
    ------------------------------------------------

 NO OUTPUT CONTROL FOR STRESS PERIOD   13   TIME STEP    7
 
 SOLVING FOR HEAD 
                                                   Max.-Head-Change                         Max.-Flux-Residual
  Residual-Control   Outer-Iter.   Inner-Iter.     Column Row Layer    Maximum-Head-Change  Column Row Layer    Maximum-Flux-Residual          L2-NORM 
          0                 1           2             4    7     1       0.2114236351E-01       4    7    1         0.1110208929E+01      0.2711725192E+01
          0                 2           2             4    7     1      -0.2055470113E-02       4    7    1        -0.1109612140E+00      0.2710556035E+00
          0                 3           2             4    7     1       0.1398644169E-03       4    7    1         0.7761421787E-02      0.1896300584E-01
          0                 4           1             4    7     1      -0.5558359740E-05       4    7    1        -0.3170438326E-03      0.7748408555E-03

    ------------------------------------------------
       NWT REQUIRED            4 OUTER ITERATIONS 
       AND A TOTAL OF          7 INNER ITERATIONS.
    ------------------------------------------------

 NO OUTPUT CONTROL FOR STRESS PERIOD   13   TIME STEP    8
 
 SOLVING FOR HEAD 
                                                   Max.-Head-Change                         Max.-Flux-Residual
  Residual-Control   Outer-Iter.   Inner-Iter.     Column Row Layer    Maximum-Head-Change  Column Row Layer    Maximum-Flux-Residual          L2-NORM 
          0                 1           2             4    7     1       0.2092102061E-01       4    7    1         0.1098530728E+01      0.2686459198E+01
          0                 2           2             4    7     1      -0.2033950925E-02       4    7    1        -0.1097940117E+00      0.2685354641E+00
          0                 3           2             4    7     1       0.1384001423E-03       4    7    1         0.7679779074E-02      0.1878683428E-01
          0                 4           1             4    7     1      -0.5500167688E-05       4    7    1        -0.3137088052E-03      0.7677930198E-03

    ------------------------------------------------
       NWT REQUIRED            4 OUTER ITERATIONS 
       AND A TOTAL OF          7 INNER ITERATIONS.
    ------------------------------------------------

 NO OUTPUT CONTROL FOR STRESS PERIOD   13   TIME STEP    9
 
 SOLVING FOR HEAD 
                                                   Max.-Head-Change                         Max.-Flux-Residual
  Residual-Control   Outer-Iter.   Inner-Iter.     Column Row Layer    Maximum-Head-Change  Column Row Layer    Maximum-Flux-Residual          L2-NORM 
          0                 1           2             4    7     1       0.2070305143E-01       4    7    1         0.1087032327E+01      0.2661566964E+01
          0                 2           2             4    7     1      -0.2012759736E-02       4    7    1        -0.1086447802E+00      0.2660484186E+00
          0                 3           2             4    7     1       0.1369581866E-03       4    7    1         0.7599393384E-02      0.1861294978E-01
          0                 4           1             4    7     1      -0.5442862580E-05       4    7    1        -0.3104251241E-03      0.7606115430E-03

    ------------------------------------------------
       NWT REQUIRED            4 OUTER ITERATIONS 
       AND A TOTAL OF          7 INNER ITERATIONS.
    ------------------------------------------------

 NO OUTPUT CONTROL FOR STRESS PERIOD   13   TIME STEP   10
 
 SOLVING FOR HEAD 
                                                   Max.-Head-Change                         Max.-Flux-Residual
  Residual-Control   Outer-Iter.   Inner-Iter.     Column Row Layer    Maximum-Head-Change  Column Row Layer    Maximum-Flux-Residual          L2-NORM 
          0                 1           2             4    7     1       0.2048822950E-01       4    7    1         0.1075701496E+01      0.2637038537E+01
          0                 2           2             4    7     1      -0.1991874530E-02       4    7    1        -0.1075122971E+00      0.2635977380E+00
          0                 3           2             4    7     1       0.1355370518E-03       4    7    1         0.7520179192E-02      0.1844156997E-01
          0                 4           1             4    7     1      -0.5386385239E-05       4    7    1        -0.3071893266E-03      0.7535956357E-03

    ------------------------------------------------
       NWT REQUIRED            4 OUTER ITERATIONS 
       AND A TOTAL OF          7 INNER ITERATIONS.
    ------------------------------------------------

 NO OUTPUT CONTROL FOR STRESS PERIOD   13   TIME STEP   11
 
 SOLVING FOR HEAD 
                                                   Max.-Head-Change                         Max.-Flux-Residual
  Residual-Control   Outer-Iter.   Inner-Iter.     Column Row Layer    Maximum-Head-Change  Column Row Layer    Maximum-Flux-Residual          L2-NORM 
          0                 1           2             4    7     1       0.2027661514E-01       4    7    1         0.1064541196E+01      0.2612865308E+01
          0                 2           2             4    7     1      -0.1971301170E-02       4    7    1        -0.1063968582E+00      0.2611823550E+00
          0                 3           2             4    7     1       0.1341371367E-03       4    7    1         0.7442157227E-02      0.1827267186E-01
          0                 4           1             4    7     1      -0.5330750747E-05       4    7    1        -0.3040022084E-03      0.7466715130E-03

    ------------------------------------------------
       NWT REQUIRED            4 OUTER ITERATIONS 
       AND A TOTAL OF          7 INNER ITERATIONS.
    ------------------------------------------------

 NO OUTPUT CONTROL FOR STRESS PERIOD   13   TIME STEP   12
 
 SOLVING FOR HEAD 
                                                   Max.-Head-Change                         Max.-Flux-Residual
  Residual-Control   Outer-Iter.   Inner-Iter.     Column Row Layer    Maximum-Head-Change  Column Row Layer    Maximum-Flux-Residual          L2-NORM 
          0                 1           2             4    7     1       0.2006812258E-01       4    7    1         0.1053547202E+01      0.2589029409E+01
          0                 2           2             4    7     1      -0.1951031318E-02       4    7    1        -0.1052980414E+00      0.2588006249E+00
          0                 3           2             4    7     1       0.1327578738E-03       4    7    1         0.7365297930E-02      0.1810615462E-01
          0                 4           1             4    7     1      -0.5275937000E-05       4    7    1        -0.3008625813E-03      0.7398843829E-03

    ------------------------------------------------
       NWT REQUIRED            4 OUTER ITERATIONS 
       AND A TOTAL OF          7 INNER ITERATIONS.
    ------------------------------------------------

 NO OUTPUT CONTROL FOR STRESS PERIOD   13   TIME STEP   13
 
 SOLVING FOR HEAD 
                                                   Max.-Head-Change                         Max.-Flux-Residual
  Residual-Control   Outer-Iter.   Inner-Iter.     Column Row Layer    Maximum-Head-Change  Column Row Layer    Maximum-Flux-Residual          L2-NORM 
          0                 1           2             4    7     1       0.1986267746E-01       4    7    1         0.1042715068E+01      0.2565538532E+01
          0                 2           2             4    7     1      -0.1931057745E-02       4    7    1        -0.1042154022E+00      0.2564533440E+00
          0                 3           2             4    7     1       0.1313987709E-03       4    7    1         0.7289570206E-02      0.1794202656E-01
          0                 4           1             4    7     1      -0.5221924886E-05       4    7    1        -0.2977691793E-03      0.7332009417E-03

    ------------------------------------------------
       NWT REQUIRED            4 OUTER ITERATIONS 
       AND A TOTAL OF          7 INNER ITERATIONS.
    ------------------------------------------------

 NO OUTPUT CONTROL FOR STRESS PERIOD   13   TIME STEP   14
 
 SOLVING FOR HEAD 
                                                   Max.-Head-Change                         Max.-Flux-Residual
  Residual-Control   Outer-Iter.   Inner-Iter.     Column Row Layer    Maximum-Head-Change  Column Row Layer    Maximum-Flux-Residual          L2-NORM 
          0                 1           2             4    7     1       0.1966020247E-01       4    7    1         0.1032040938E+01      0.2542366655E+01
          0                 2           2             4    7     1      -0.1911372933E-02       4    7    1        -0.1031485552E+00      0.2541377653E+00
          0                 3           2             4    7     1       0.1300593172E-03       4    7    1         0.7214947112E-02      0.1778007946E-01
          0                 4           1             4    7     1      -0.5168693337E-05       4    7    1        -0.2947209177E-03      0.7265977815E-03

    ------------------------------------------------
       NWT REQUIRED            4 OUTER ITERATIONS 
       AND A TOTAL OF          7 INNER ITERATIONS.
    ------------------------------------------------

 NO OUTPUT CONTROL FOR STRESS PERIOD   13   TIME STEP   15
 
 SOLVING FOR HEAD 
                                                   Max.-Head-Change                         Max.-Flux-Residual
  Residual-Control   Outer-Iter.   Inner-Iter.     Column Row Layer    Maximum-Head-Change  Column Row Layer    Maximum-Flux-Residual          L2-NORM 
          0                 1           2             4    7     1       0.1946062958E-01       4    7    1         0.1021520805E+01      0.2519523228E+01
          0                 2           2             4    7     1      -0.1891970268E-02       4    7    1        -0.1020970999E+00      0.2518549604E+00
          0                 3           2             4    7     1       0.1287390623E-03       4    7    1         0.7141400641E-02      0.1762041332E-01
          0                 4           1             4    7     1      -0.5116225085E-05       4    7    1        -0.2917166248E-03      0.7200327645E-03

    ------------------------------------------------
       NWT REQUIRED            4 OUTER ITERATIONS 
       AND A TOTAL OF          7 INNER ITERATIONS.
    ------------------------------------------------

 NO OUTPUT CONTROL FOR STRESS PERIOD   13   TIME STEP   16
 
 SOLVING FOR HEAD 
                                                   Max.-Head-Change                         Max.-Flux-Residual
  Residual-Control   Outer-Iter.   Inner-Iter.     Column Row Layer    Maximum-Head-Change  Column Row Layer    Maximum-Flux-Residual          L2-NORM 
          0                 1           2             4    7     1       0.1926388769E-01       4    7    1         0.1011151140E+01      0.2496985396E+01
          0                 2           2             4    7     1      -0.1872842838E-02       4    7    1        -0.1010606836E+00      0.2496027223E+00
          0                 3           2             4    7     1       0.1274375358E-03       4    7    1         0.7068906103E-02      0.1746288844E-01
          0                 4           1             4    7     1      -0.5064500672E-05       4    7    1        -0.2887553092E-03      0.7136288349E-03

    ------------------------------------------------
       NWT REQUIRED            4 OUTER ITERATIONS 
       AND A TOTAL OF          7 INNER ITERATIONS.
    ------------------------------------------------

 NO OUTPUT CONTROL FOR STRESS PERIOD   13   TIME STEP   17
 
 SOLVING FOR HEAD 
                                                   Max.-Head-Change                         Max.-Flux-Residual
  Residual-Control   Outer-Iter.   Inner-Iter.     Column Row Layer    Maximum-Head-Change  Column Row Layer    Maximum-Flux-Residual          L2-NORM 
          0                 1           2             4    7     1       0.1906991610E-01       4    7    1         0.1000928257E+01      0.2474763905E+01
          0                 2           2             4    7     1      -0.1853984742E-02       4    7    1        -0.1000389379E+00      0.2473819493E+00
          0                 3           2             4    7     1       0.1261543363E-03       4    7    1         0.6997437743E-02      0.1730758679E-01
          0                 4           1             4    7     1      -0.5013505247E-05       4    7    1        -0.2858359176E-03      0.7072533535E-03

    ------------------------------------------------
       NWT REQUIRED            4 OUTER ITERATIONS 
       AND A TOTAL OF          7 INNER ITERATIONS.
    ------------------------------------------------

 NO OUTPUT CONTROL FOR STRESS PERIOD   13   TIME STEP   18
 
 SOLVING FOR HEAD 
                                                   Max.-Head-Change                         Max.-Flux-Residual
  Residual-Control   Outer-Iter.   Inner-Iter.     Column Row Layer    Maximum-Head-Change  Column Row Layer    Maximum-Flux-Residual          L2-NORM 
          0                 1           2             4    7     1       0.1887864788E-01       4    7    1         0.9908490088E+00      0.2452837988E+01
          0                 2           2             4    7     1      -0.1835389472E-02       4    7    1        -0.9903154826E-01      0.2451907442E+00
          0                 3           2             4    7     1       0.1248890209E-03       4    7    1         0.6926973568E-02      0.1715431528E-01
          0                 4           1             4    7     1      -0.4963220043E-05       4    7    1        -0.2829575374E-03      0.7010154003E-03

    ------------------------------------------------
       NWT REQUIRED            4 OUTER ITERATIONS 
       AND A TOTAL OF          7 INNER ITERATIONS.
    ------------------------------------------------

 NO OUTPUT CONTROL FOR STRESS PERIOD   13   TIME STEP   19
 
 SOLVING FOR HEAD 
                                                   Max.-Head-Change                         Max.-Flux-Residual
  Residual-Control   Outer-Iter.   Inner-Iter.     Column Row Layer    Maximum-Head-Change  Column Row Layer    Maximum-Flux-Residual          L2-NORM 
          0                 1           2             4    7     1       0.1869002454E-01       4    7    1         0.9809099261E+00      0.2431205281E+01
          0                 2           2             4    7     1      -0.1817051342E-02       4    7    1        -0.9803816784E-01      0.2430286938E+00
          0                 3           2             4    7     1       0.1236412021E-03       4    7    1         0.6857489278E-02      0.1700304465E-01
          0                 4           1             4    7     1      -0.4913630211E-05       4    7    1        -0.2801191731E-03      0.6947980767E-03

    ------------------------------------------------
       NWT REQUIRED            4 OUTER ITERATIONS 
       AND A TOTAL OF          7 INNER ITERATIONS.
    ------------------------------------------------

 NO OUTPUT CONTROL FOR STRESS PERIOD   13   TIME STEP   20
 
 SOLVING FOR HEAD 
                                                   Max.-Head-Change                         Max.-Flux-Residual
  Residual-Control   Outer-Iter.   Inner-Iter.     Column Row Layer    Maximum-Head-Change  Column Row Layer    Maximum-Flux-Residual          L2-NORM 
          0                 1           2             4    7     1       0.1850398724E-01       4    7    1         0.9711079752E+00      0.2409865287E+01
          0                 2           2             4    7     1      -0.1798964632E-02       4    7    1        -0.9705849347E-01      0.2408959955E+00
          0                 3           2             4    7     1       0.1224104917E-03       4    7    1         0.6788963713E-02      0.1685393447E-01
          0                 4           1             4    7     1      -0.4864720668E-05       4    7    1        -0.2773199863E-03      0.6887564553E-03

    ------------------------------------------------
       NWT REQUIRED            4 OUTER ITERATIONS 
       AND A TOTAL OF          7 INNER ITERATIONS.
    ------------------------------------------------

 NO OUTPUT CONTROL FOR STRESS PERIOD   13   TIME STEP   21
 
 SOLVING FOR HEAD 
                                                   Max.-Head-Change                         Max.-Flux-Residual
  Residual-Control   Outer-Iter.   Inner-Iter.     Column Row Layer    Maximum-Head-Change  Column Row Layer    Maximum-Flux-Residual          L2-NORM 
          0                 1           2             4    7     1       0.1832061696E-01       4    7    1         0.9614474603E+00      0.2388810696E+01
          0                 2           2             4    7     1      -0.1781137213E-02       4    7    1        -0.9609295532E-01      0.2387915587E+00
          0                 3           2             4    7     1       0.1211974247E-03       4    7    1         0.6721426925E-02      0.1670674998E-01
          0                 4           1             4    7     1      -0.4816512136E-05       4    7    1        -0.2745611928E-03      0.6827284977E-03

    ------------------------------------------------
       NWT REQUIRED            4 OUTER ITERATIONS 
       AND A TOTAL OF          7 INNER ITERATIONS.
    ------------------------------------------------

 NO OUTPUT CONTROL FOR STRESS PERIOD   13   TIME STEP   22
 
 SOLVING FOR HEAD 
                                                   Max.-Head-Change                         Max.-Flux-Residual
  Residual-Control   Outer-Iter.   Inner-Iter.     Column Row Layer    Maximum-Head-Change  Column Row Layer    Maximum-Flux-Residual          L2-NORM 
          0                 1           2             4    7     1       0.1813971737E-01       4    7    1         0.9519178716E+00      0.2368024848E+01
          0                 2           2             4    7     1      -0.1763550000E-02       4    7    1        -0.9514050299E-01      0.2367143005E+00
          0                 3           2             4    7     1       0.1200007023E-03       4    7    1         0.6654805478E-02      0.1656146063E-01
          0                 4           1             4    7     1      -0.4768952464E-05       4    7    1        -0.2718397614E-03      0.6767952430E-03

    ------------------------------------------------
       NWT REQUIRED            4 OUTER ITERATIONS 
       AND A TOTAL OF          7 INNER ITERATIONS.
    ------------------------------------------------

 NO OUTPUT CONTROL FOR STRESS PERIOD   13   TIME STEP   23
 
 SOLVING FOR HEAD 
                                                   Max.-Head-Change                         Max.-Flux-Residual
  Residual-Control   Outer-Iter.   Inner-Iter.     Column Row Layer    Maximum-Head-Change  Column Row Layer    Maximum-Flux-Residual          L2-NORM 
          0                 1           2             4    7     1       0.1796124100E-01       4    7    1         0.9425163837E+00      0.2347523655E+01
          0                 2           2             4    7     1      -0.1746198374E-02       4    7    1        -0.9420085400E-01      0.2346653726E+00
          0                 3           2             4    7     1       0.1188200110E-03       4    7    1         0.6589079574E-02      0.1641813836E-01
          0                 4           1             4    7     1      -0.4722030829E-05       4    7    1        -0.2691549580E-03      0.6709307458E-03

    ------------------------------------------------
       NWT REQUIRED            4 OUTER ITERATIONS 
       AND A TOTAL OF          7 INNER ITERATIONS.
    ------------------------------------------------

 NO OUTPUT CONTROL FOR STRESS PERIOD   13   TIME STEP   24
 
 SOLVING FOR HEAD 
                                                   Max.-Head-Change                         Max.-Flux-Residual
  Residual-Control   Outer-Iter.   Inner-Iter.     Column Row Layer    Maximum-Head-Change  Column Row Layer    Maximum-Flux-Residual          L2-NORM 
          0                 1           2             4    7     1       0.1778527060E-01       4    7    1         0.9332478900E+00      0.2327289636E+01
          0                 2           2             4    7     1      -0.1729090318E-02       4    7    1        -0.9327449757E-01      0.2326440491E+00
          0                 3           1             4    7     1       0.1176558311E-03       4    7    1         0.6524283468E-02      0.1627243025E-01
          0                 4           1             4    7     1      -0.4675767494E-05       4    7    1        -0.2665081074E-03      0.6649715253E-03

    ------------------------------------------------
       NWT REQUIRED            4 OUTER ITERATIONS 
       AND A TOTAL OF          6 INNER ITERATIONS.
    ------------------------------------------------

 NO OUTPUT CONTROL FOR STRESS PERIOD   13   TIME STEP   25
 
 SOLVING FOR HEAD 
                                                   Max.-Head-Change                         Max.-Flux-Residual
  Residual-Control   Outer-Iter.   Inner-Iter.     Column Row Layer    Maximum-Head-Change  Column Row Layer    Maximum-Flux-Residual          L2-NORM 
          0                 1           2             4    7     1       0.1761148049E-01       4    7    1         0.9240946167E+00      0.2307303451E+01
          0                 2           2             4    7     1      -0.1712195121E-02       4    7    1        -0.9235965710E-01      0.2306960398E+00
          0                 3           1             4    7     1       0.1165062617E-03       4    7    1         0.6460292860E-02      0.1614048890E-01
          0                 4           1             4    7     1      -0.4630082214E-05       4    7    1        -0.2638941651E-03      0.6595902153E-03

    ------------------------------------------------
       NWT REQUIRED            4 OUTER ITERATIONS 
       AND A TOTAL OF          6 INNER ITERATIONS.
    ------------------------------------------------

 NO OUTPUT CONTROL FOR STRESS PERIOD   13   TIME STEP   26
 
 SOLVING FOR HEAD 
                                                   Max.-Head-Change                         Max.-Flux-Residual
  Residual-Control   Outer-Iter.   Inner-Iter.     Column Row Layer    Maximum-Head-Change  Column Row Layer    Maximum-Flux-Residual          L2-NORM 
          0                 1           2             4    7     1       0.1744023455E-01       4    7    1         0.9150764132E+00      0.2287543817E+01
          0                 2           2             4    7     1      -0.1695545694E-02       4    7    1        -0.9145831661E-01      0.2286705220E+00
          0                 3           1             4    7     1       0.1153733517E-03       4    7    1         0.6397246569E-02      0.1599879152E-01
          0                 4           1             4    7     1      -0.4585059263E-05       4    7    1        -0.2613188021E-03      0.6538183421E-03

    ------------------------------------------------
       NWT REQUIRED            4 OUTER ITERATIONS 
       AND A TOTAL OF          6 INNER ITERATIONS.
    ------------------------------------------------

 NO OUTPUT CONTROL FOR STRESS PERIOD   13   TIME STEP   27
 
 SOLVING FOR HEAD 
                                                   Max.-Head-Change                         Max.-Flux-Residual
  Residual-Control   Outer-Iter.   Inner-Iter.     Column Row Layer    Maximum-Head-Change  Column Row Layer    Maximum-Flux-Residual          L2-NORM 
          0                 1           2             4    7     1       0.1727120871E-01       4    7    1         0.9061754898E+00      0.2268033405E+01
          0                 2           2             4    7     1      -0.1679112865E-02       4    7    1        -0.9056869799E-01      0.2267204933E+00
          0                 3           1             4    7     1       0.1142551791E-03       4    7    1         0.6335020147E-02      0.1586240588E-01
          0                 4           1             4    7     1      -0.4540621621E-05       4    7    1        -0.2587769163E-03      0.6482526244E-03

    ------------------------------------------------
       NWT REQUIRED            4 OUTER ITERATIONS 
       AND A TOTAL OF          6 INNER ITERATIONS.
    ------------------------------------------------

 NO OUTPUT CONTROL FOR STRESS PERIOD   13   TIME STEP   28
 
 SOLVING FOR HEAD 
                                                   Max.-Head-Change                         Max.-Flux-Residual
  Residual-Control   Outer-Iter.   Inner-Iter.     Column Row Layer    Maximum-Head-Change  Column Row Layer    Maximum-Flux-Residual          L2-NORM 
          0                 1           2             4    7     1       0.1710436213E-01       4    7    1         0.8973896350E+00      0.2248776057E+01
          0                 2           2             4    7     1      -0.1662891906E-02       4    7    1        -0.8969058020E-01      0.2247957319E+00
          0                 3           1             4    7     1       0.1131514245E-03       4    7    1         0.6273598229E-02      0.1572773916E-01
          0                 4           1             4    7     1      -0.4496757315E-05       4    7    1        -0.2562679115E-03      0.6427109814E-03

    ------------------------------------------------
       NWT REQUIRED            4 OUTER ITERATIONS 
       AND A TOTAL OF          6 INNER ITERATIONS.
    ------------------------------------------------

 NO OUTPUT CONTROL FOR STRESS PERIOD   13   TIME STEP   29
 
 SOLVING FOR HEAD 
                                                   Max.-Head-Change                         Max.-Flux-Residual
  Residual-Control   Outer-Iter.   Inner-Iter.     Column Row Layer    Maximum-Head-Change  Column Row Layer    Maximum-Flux-Residual          L2-NORM 
          0                 1           2             4    7     1       0.1693978108E-01       4    7    1         0.8887241265E+00      0.2229756690E+01
          0                 2           2             4    7     1      -0.1646891206E-02       4    7    1        -0.8882449076E-01      0.2228947221E+00
          0                 3           1             4    7     1       0.1120626563E-03       4    7    1         0.6213017613E-02      0.1559475159E-01
          0                 4           1             4    7     1      -0.4453488333E-05       4    7    1        -0.2537932660E-03      0.6373026946E-03

    ------------------------------------------------
       NWT REQUIRED            4 OUTER ITERATIONS 
       AND A TOTAL OF          6 INNER ITERATIONS.
    ------------------------------------------------

 NO OUTPUT CONTROL FOR STRESS PERIOD   13   TIME STEP   30



 STREAM LISTING     PERIOD     13   STEP       30

 LAYER ROW COL. STREAM  RCH.  FLOW INTO     FLOW TO   FLOW OUT OF   OVRLND.     DIRECT     STREAM       STREAM     STREAM     STREAM   STREAMBED  STREAMBED
                SEG.NO.  NO.  STRM. RCH.    AQUIFER    STRM. RCH.    RUNOFF     PRECIP       ET          HEAD       DEPTH      WIDTH   CONDCTNC.   GRADIENT

   1    1    1     1     1    2.3000E+01  2.3574E-01   2.2764E+01  0.000E+00  0.000E+00  0.000E+00  1.09420E+03  1.148E+00  1.263E+01  5.684E-02  1.383E+00
   1    2    2     1     2    2.2764E+01  3.6445E-01   2.2400E+01  0.000E+00  0.000E+00  0.000E+00  1.08920E+03  1.143E+00  1.257E+01  8.797E-02  1.381E+00
   1    3    3     1     3    2.2400E+01  3.1019E-01   2.2089E+01  0.000E+00  0.000E+00  0.000E+00  1.08356E+03  1.138E+00  1.250E+01  7.497E-02  1.379E+00
   1    3    4     1     4    2.2089E+01  2.8513E-01   2.1804E+01  0.000E+00  0.000E+00  0.000E+00  1.07854E+03  1.133E+00  1.243E+01  6.899E-02  1.378E+00
   1    4    5     2     1    1.9804E+01  3.1551E-01   1.9489E+01  0.000E+00  0.000E+00  0.000E+00  1.07298E+03  1.045E+00  1.200E+01  7.800E-02  1.348E+00
   1    5    6     2     2    1.9489E+01  2.4216E-01   1.9247E+01  0.000E+00  0.000E+00  0.000E+00  1.06755E+03  1.036E+00  1.200E+01  6.000E-02  1.345E+00
   1    6    6     2     3    1.9247E+01  2.4170E-01   1.9005E+01  0.000E+00  0.000E+00  0.000E+00  1.06282E+03  1.028E+00  1.200E+01  6.000E-02  1.343E+00
   1    7    6     2     4    1.9005E+01  2.4123E-01   1.8764E+01  0.000E+00  0.000E+00  0.000E+00  1.05810E+03  1.020E+00  1.200E+01  6.000E-02  1.340E+00
   1    8    6     2     5    1.8764E+01  2.4076E-01   1.8523E+01  0.000E+00  0.000E+00  0.000E+00  1.05337E+03  1.013E+00  1.200E+01  6.000E-02  1.338E+00
   1    3    5     3     1    2.0000E+00  2.8252E-01   1.7175E+00  0.000E+00  0.000E+00  0.000E+00  1.07555E+03  1.909E+00  9.636E+00  7.227E-02  1.955E+00
   1    3    6     3     2    1.7175E+00  2.4905E-01   1.4684E+00  0.000E+00  0.000E+00  0.000E+00  1.07264E+03  1.727E+00  8.909E+00  6.682E-02  1.864E+00
   1    3    7     3     3    1.4684E+00  1.9718E-01   1.2712E+00  0.000E+00  0.000E+00  0.000E+00  1.06987E+03  1.555E+00  8.218E+00  5.547E-02  1.777E+00
   1    4    8     3     4    1.2712E+00  2.2567E-01   1.0456E+00  0.000E+00  0.000E+00  0.000E+00  1.06682E+03  1.364E+00  7.455E+00  6.709E-02  1.682E+00
   1    5    8     3     5    1.0456E+00  1.5790E-01   8.8768E-01  0.000E+00  0.000E+00  0.000E+00  1.06362E+03  1.164E+00  6.655E+00  4.991E-02  1.582E+00
   1    6    8     3     6    8.8768E-01  5.5980E-02   8.3170E-01  0.000E+00  0.000E+00  0.000E+00  1.06158E+03  1.036E+00  6.145E+00  1.844E-02  1.518E+00
   1    5   10     4     1    1.0000E+01  9.0919E-02   9.9091E+00  0.000E+00  0.000E+00  0.000E+00  1.07836E+03  6.368E-01  1.000E+01  2.500E-02  1.212E+00
   1    5    9     4     2    9.9091E+00  1.8158E-01   9.7275E+00  0.000E+00  0.000E+00  0.000E+00  1.07154E+03  6.315E-01  1.000E+01  5.000E-02  1.211E+00
   1    6    8     4     3    9.7275E+00  1.2689E-01   9.6006E+00  0.000E+00  0.000E+00  0.000E+00  1.06381E+03  6.256E-01  1.000E+01  3.500E-02  1.209E+00
   1    6    8     5     1    1.0432E+01  2.2686E-01   1.0205E+01  0.000E+00  0.000E+00  0.000E+00  1.05868E+03  6.790E-01  1.542E+01  6.166E-02  1.226E+00
   1    7    7     5     2    1.0205E+01  2.7894E-01   9.9265E+00  0.000E+00  0.000E+00  0.000E+00  1.05417E+03  6.732E-01  1.519E+01  7.594E-02  1.224E+00
   1    8    7     5     3    9.9265E+00  1.9221E-01   9.7343E+00  0.000E+00  0.000E+00  0.000E+00  1.04992E+03  6.676E-01  1.497E+01  5.241E-02  1.223E+00
   1    8    6     5     4    9.7343E+00  1.3577E-01   9.5985E+00  0.000E+00  0.000E+00  0.000E+00  1.04691E+03  6.637E-01  1.482E+01  3.706E-02  1.221E+00
   1    9    6     6     1    2.8121E+01  2.5841E-01   2.7863E+01  0.000E+00  0.000E+00  0.000E+00  1.04403E+03  1.307E+00  1.200E+01  6.000E-02  1.436E+00
   1   10    7     6     2    2.7863E+01  2.5797E-01   2.7605E+01  0.000E+00  0.000E+00  0.000E+00  1.03948E+03  1.300E+00  1.200E+01  6.000E-02  1.433E+00
   1   11    7     6     3    2.7605E+01  2.5753E-01   2.7348E+01  0.000E+00  0.000E+00  0.000E+00  1.03493E+03  1.292E+00  1.200E+01  6.000E-02  1.431E+00
   1   12    7     6     4    2.7348E+01  2.5710E-01   2.7090E+01  0.000E+00  0.000E+00  0.000E+00  1.03038E+03  1.285E+00  1.200E+01  6.000E-02  1.428E+00
   1   13    7     6     5    2.7090E+01  5.4744E-04   2.7090E+01  0.000E+00  0.000E+00  0.000E+00  1.02719E+03  1.281E+00  1.200E+01  2.400E-02  7.603E-03
   1   14    9     7     1    1.5000E+02  1.3296E+00   1.4867E+02  0.000E+00  0.000E+00  0.000E+00  1.03987E+03  2.288E+00  5.529E+01  5.593E-01  7.924E-01
   1   13    8     7     2    1.4867E+02  1.8014E+00   1.4687E+02  0.000E+00  0.000E+00  0.000E+00  1.03478E+03  2.279E+00  5.526E+01  6.148E-01  9.767E-01
   1   13    7     7     3    1.4687E+02  1.4088E+00   1.4546E+02  0.000E+00  0.000E+00  0.000E+00  1.02969E+03  2.271E+00  5.522E+01  5.585E-01  8.409E-01
   1   13    6     8     1    1.7255E+02  8.7781E-01   1.7167E+02  0.000E+00  0.000E+00  0.000E+00  1.02484E+03  2.966E+00  4.301E+01  4.382E-01  6.677E-01
   1   13    5     8     2    1.7167E+02  1.4038E-01   1.7153E+02  0.000E+00  0.000E+00  0.000E+00  1.01859E+03  2.963E+00  4.296E+01  4.378E-01  1.069E-01
   1   13    4     8     3    1.7153E+02 -2.5376E+00   1.7407E+02  0.000E+00  0.000E+00  0.000E+00  1.01235E+03  2.970E+00  4.307E+01  4.389E+00 -1.927E-01
   1   13    3     8     4    1.7407E+02 -3.7168E+00   1.7779E+02  0.000E+00  0.000E+00  0.000E+00  1.00612E+03  2.990E+00  4.336E+01  4.419E+00 -2.804E-01
   1   13    2     8     5    1.7779E+02 -2.6038E+00   1.8039E+02  0.000E+00  0.000E+00  0.000E+00  9.99885E+02  3.010E+00  4.365E+01  4.448E+00 -1.951E-01
   1   13    1     8     6    1.8039E+02 -2.0003E+00   1.8239E+02  0.000E+00  0.000E+00  0.000E+00  9.94900E+02  3.025E+00  4.386E+01  2.682E+00 -2.486E-01





UNSATURATED ZONE PACKAGE VOLUMETRIC BUDGET FOR  TIME STEP    30 STRESS PERIOD   13
  ------------------------------------------------------------------------------



     CUMULATIVE VOLUMES      L**3       RATES FOR THIS TIME STEP      L**3/T
     ------------------                 ------------------------

           IN:                                      IN:
           ---                                      ---
        INFILTRATION =   502660995.7214          INFILTRATION =           0.8475

          OUT:                                     OUT:
          ----                                     ----
              UZF ET =   430056082.6099                UZF ET =           0.7500
        UZF RECHARGE =    72021049.8149          UZF RECHARGE =           0.0002

            IN - OUT =      583863.2967              IN - OUT =       9.7287E-02

          STORAGE:                                 STORAGE:
          --------                                 --------
      STORAGE CHANGE =      583856.1086        STORAGE CHANGE =       9.7287E-02

 PERCENT DISCREPANCY IS DIFFERENCE BETWEEN IN-OUT MINUS CHANGE IN STORAGE
 DIVIDED BY THE AVERAGE OF IN AND OUT TIMES 100

 PERCENT DISCREPANCY =           0.00     PERCENT DISCREPANCY =           0.00






1
  VOLUMETRIC BUDGET FOR AGRICULTURAL FIELDS AT  END OF TIME STEP   30, STRESS PERIOD  13
  ------------------------------------------------------------------------------

     CUMULATIVE VOLUMES      L**3       RATES FOR THIS TIME STEP      L**3/T
     ------------------                 ------------------------

           IN:                                      IN:
           ---                                      ---
               AG WELLS  =   475840128.0000                 AG WELLS  =           0.0000
      DIVERSION SEGMENTS =           0.0000        DIVERSION SEGMENTS =           0.0000
           GW IRRIGATION =           0.0000             GW IRRIGATION =           0.0000
           SW IRRIGATION =           0.0000             SW IRRIGATION =           0.0000
        SYSTEM LOSSES GW =           0.0000          SYSTEM LOSSES GW =           0.0000
        SYSTEM LOSSES SW =           0.0000          SYSTEM LOSSES SW =           0.0000

                TOTAL IN =   475840128.0000                  TOTAL IN =           0.0000

          OUT:                                     OUT:
          ----                                     ----
               AG WELLS  =           0.0000                 AG WELLS  =           0.0000
      DIVERSION SEGMENTS =           0.0000        DIVERSION SEGMENTS =           0.0000
           GW IRRIGATION =   475840128.0000             GW IRRIGATION =           0.0000
           SW IRRIGATION =           0.0000             SW IRRIGATION =           0.0000
        SYSTEM LOSSES GW =           0.0000          SYSTEM LOSSES GW =           0.0000
        SYSTEM LOSSES SW =           0.0000          SYSTEM LOSSES SW =           0.0000

               TOTAL OUT =   475840128.0000                 TOTAL OUT =           0.0000

                IN - OUT =           0.0000                  IN - OUT =           0.0000

     PERCENT DISCREPANCY =           0.00         PERCENT DISCREPANCY =           0.00



1
  VOLUMETRIC BUDGET FOR ENTIRE MODEL AT END OF TIME STEP   30, STRESS PERIOD  13
  ------------------------------------------------------------------------------

     CUMULATIVE VOLUMES      L**3       RATES FOR THIS TIME STEP      L**3/T
     ------------------                 ------------------------

           IN:                                      IN:
           ---                                      ---
             STORAGE     =   595669440.0000               STORAGE     =           6.8211
       CONSTANT HEAD     =           0.0000         CONSTANT HEAD     =           0.0000
     HEAD DEP BOUNDS     =     9032909.0000       HEAD DEP BOUNDS     =           0.2853
      STREAM LEAKAGE     =   394526528.0000        STREAM LEAKAGE     =          11.4679
        UZF RECHARGE     =    72021064.0000          UZF RECHARGE     =       2.1309E-04
               GW ET     =           0.0000                 GW ET     =           0.0000
     SURFACE LEAKAGE     =           0.0000       SURFACE LEAKAGE     =           0.0000
           AG WELLS      =           0.0000             AG WELLS      =           0.0000

                TOTAL IN =  1071249920.0000                  TOTAL IN =          18.5745

          OUT:                                     OUT:
          ----                                     ----
             STORAGE     =   243831920.0000               STORAGE     =           7.4256
       CONSTANT HEAD     =           0.0000         CONSTANT HEAD     =           0.0000
     HEAD DEP BOUNDS     =     9325057.0000       HEAD DEP BOUNDS     =           0.2905
      STREAM LEAKAGE     =   328497312.0000        STREAM LEAKAGE     =          10.8584
        UZF RECHARGE     =           0.0000          UZF RECHARGE     =           0.0000
               GW ET     =    13750637.0000                 GW ET     =           0.0000
     SURFACE LEAKAGE     =           0.0000       SURFACE LEAKAGE     =           0.0000
           AG WELLS      =   475840128.0000             AG WELLS      =           0.0000

               TOTAL OUT =  1071245056.0000                 TOTAL OUT =          18.5745

                IN - OUT =        4864.0000                  IN - OUT =       7.6294E-06

     PERCENT DISCREPANCY =           0.00         PERCENT DISCREPANCY =           0.00






         TIME SUMMARY AT END OF TIME STEP   30 IN STRESS PERIOD   13
                    SECONDS     MINUTES      HOURS       DAYS        YEARS
                    -----------------------------------------------------------
   TIME STEP LENGTH  87667.      1461.1      24.352      1.0147     2.77799E-03
 STRESS PERIOD TIME 2.63000E+06  43833.      730.56      30.440     8.33397E-02
         TOTAL TIME 3.16463E+07 5.27439E+05  8790.6      366.28      1.0028    
1
1
                            STRESS PERIOD NO.   14, LENGTH =   2630000.    
                            -----------------------------------------------

                              NUMBER OF TIME STEPS =    30

                               MULTIPLIER FOR DELT =     1.000

                            INITIAL TIME STEP SIZE =   87666.66    

 REUSING NON-PARAMETER GHB CELLS FROM LAST STRESS PERIOD

      2 GHB CELLS

 REUSING STREAM SEGMENT DATA FROM LAST STRESS PERIOD



            AREAL INFILTRATION RATE
 READING ON UNIT   19 WITH FORMAT: (FREE)              

            1           2           3           4           5           6           7           8           9          10
 ........................................................................................................................
   1   1.0000E-10  2.0000E-10   0.000       0.000       0.000       0.000       0.000       0.000       0.000       0.000    
   2   2.0000E-10  1.0000E-10  2.0000E-10   0.000       0.000      8.0000E-10  8.0000E-10  5.0000E-10   0.000       0.000    
   3    0.000      5.0000E-10  1.0000E-10  1.0000E-10  8.0000E-10  8.0000E-10  5.0000E-10  5.0000E-10   0.000       0.000    
   4   8.0000E-10  5.0000E-10  1.0000E-10  1.0000E-10  1.0000E-10  1.0000E-10  1.0000E-10  1.0000E-10  2.0000E-10   0.000    
   5   8.0000E-10  5.0000E-10  1.0000E-10  1.0000E-10  1.0000E-10  1.0000E-10  1.0000E-10  1.0000E-10  1.0000E-10  1.0000E-10
   6   8.0000E-10  5.0000E-10  5.0000E-10  2.0000E-10  2.0000E-10  1.0000E-10  1.0000E-10  1.0000E-10  1.0000E-10  5.0000E-10
   7   8.0000E-10  5.0000E-10  5.0000E-10  2.0000E-10  2.0000E-10  1.0000E-10  1.0000E-10  2.0000E-10  2.0000E-10   0.000    
   8    0.000      5.0000E-10  5.0000E-10  2.0000E-10  2.0000E-10  1.0000E-10  1.0000E-10  2.0000E-10  5.0000E-10   0.000    
   9    0.000      5.0000E-10  5.0000E-10  2.0000E-10  2.0000E-10  1.0000E-10  1.0000E-10  2.0000E-10  5.0000E-10   0.000    
  10    0.000      5.0000E-10  5.0000E-10  2.0000E-10  2.0000E-10  1.0000E-10  1.0000E-10  2.0000E-10  5.0000E-10  8.0000E-10
  11    0.000      1.0000E-10  1.0000E-10  1.0000E-10  1.0000E-10  1.0000E-10  1.0000E-10  2.0000E-10  5.0000E-10   0.000    
  12   1.0000E-10  1.0000E-10  1.0000E-10  1.0000E-10  1.0000E-10  1.0000E-10  1.0000E-10  1.0000E-10  2.0000E-10   0.000    
  13   1.0000E-10  1.0000E-10  2.0000E-10  2.0000E-10  2.0000E-10  2.0000E-10  2.0000E-10  1.0000E-10  1.0000E-10   0.000    
  14    0.000      2.0000E-10  5.0000E-10  5.0000E-10  5.0000E-10  5.0000E-10  5.0000E-10  2.0000E-10  1.0000E-10   0.000    
  15    0.000       0.000      8.0000E-10  8.0000E-10  8.0000E-10  8.0000E-10   0.000       0.000       0.000       0.000    

                  ET RATE =  5.000000E-10

 USING ET EXTINCTION DEPTH FROM PREVIOUS STRESS PERIOD. CURRENT PERIOD IS:      14

 USING EXTINCTION WATER CONTENT FROM PREVIOUS STRESS PERIOD. CURRENT PERIOD IS:      14

 USING AIR ENTRY PRESSURE FROM PREVIOUS STRESS PERIOD. CURRENT PERIOD IS:      14

 USING ROOT PRESSURE HEAD FROM PREVIOUS STRESS PERIOD. CURRENT PERIOD IS:      14

 USING ROOT ACTIVITY FROM PREVIOUS STRESS PERIOD. CURRENT PERIOD IS:      14

 PROCESSING AG STRESS PERIOD DATA

 READING AG STRESS PERIOD DATA

 READING IRRIGATION WELL

 END PROCESSING AG STRESS PERIOD DATA OPTIONS
 
 SOLVING FOR HEAD 
                                                   Max.-Head-Change                         Max.-Flux-Residual
  Residual-Control   Outer-Iter.   Inner-Iter.     Column Row Layer    Maximum-Head-Change  Column Row Layer    Maximum-Flux-Residual          L2-NORM 
          0                 1           2             4    7     1       0.1677727487E-01       4    7    1         0.8801687256E+00      0.2214720610E+01
          0                 2           2             4    7     1      -0.1631092225E-02       4    7    1        -0.8796940637E-01      0.2213179240E+00
          0                 3           1             4    7     1       0.1109876145E-03       4    7    1         0.6153206800E-02      0.1548343607E-01
          0                 4           1             4    7     1      -0.4410764711E-05       4    7    1        -0.2513500572E-03      0.6326616177E-03

    ------------------------------------------------
       NWT REQUIRED            4 OUTER ITERATIONS 
       AND A TOTAL OF          6 INNER ITERATIONS.
    ------------------------------------------------

 NO OUTPUT CONTROL FOR STRESS PERIOD   14   TIME STEP    1
 
 SOLVING FOR HEAD 
                                                   Max.-Head-Change                         Max.-Flux-Residual
  Residual-Control   Outer-Iter.   Inner-Iter.     Column Row Layer    Maximum-Head-Change  Column Row Layer    Maximum-Flux-Residual          L2-NORM 
          0                 1           2             4    7     1       0.1661692123E-01       4    7    1         0.8717282582E+00      0.2206449569E+01
          0                 2           2             4    7     1      -0.1615502522E-02       4    7    1        -0.8712580938E-01      0.2205210182E+00
          0                 3           1             4    7     1       0.1099268130E-03       4    7    1         0.6094199503E-02      0.1542487421E-01
          0                 4           1             4    7     1      -0.4368607171E-05       4    7    1        -0.2489396798E-03      0.6299931290E-03

    ------------------------------------------------
       NWT REQUIRED            4 OUTER ITERATIONS 
       AND A TOTAL OF          6 INNER ITERATIONS.
    ------------------------------------------------

 NO OUTPUT CONTROL FOR STRESS PERIOD   14   TIME STEP    2
 
 SOLVING FOR HEAD 
                                                   Max.-Head-Change                         Max.-Flux-Residual
  Residual-Control   Outer-Iter.   Inner-Iter.     Column Row Layer    Maximum-Head-Change  Column Row Layer    Maximum-Flux-Residual          L2-NORM 
          0                 1           2             4    7     1       0.1645854097E-01       4    7    1         0.8633920409E+00      0.2187264042E+01
          0                 2           2             4    7     1      -0.1600104674E-02       4    7    1        -0.8629263195E-01      0.2186084002E+00
          0                 3           1             4    7     1       0.1088790671E-03       4    7    1         0.6035921051E-02      0.1529141581E-01
          0                 4           1             4    7     1      -0.4326968626E-05       4    7    1        -0.2465590810E-03      0.6246982908E-03

    ------------------------------------------------
       NWT REQUIRED            4 OUTER ITERATIONS 
       AND A TOTAL OF          6 INNER ITERATIONS.
    ------------------------------------------------

 NO OUTPUT CONTROL FOR STRESS PERIOD   14   TIME STEP    3
 
 SOLVING FOR HEAD 
                                                   Max.-Head-Change                         Max.-Flux-Residual
  Residual-Control   Outer-Iter.   Inner-Iter.     Column Row Layer    Maximum-Head-Change  Column Row Layer    Maximum-Flux-Residual          L2-NORM 
          0                 1           2             4    7     1       0.1630237123E-01       4    7    1         0.8551728546E+00      0.2168417028E+01
          0                 2           2             4    7     1      -0.1584921736E-02       4    7    1        -0.8547115149E-01      0.2167289045E+00
          0                 3           1             4    7     1       0.1078459440E-03       4    7    1         0.5978460738E-02      0.1516030474E-01
          0                 4           1             4    7     1      -0.4285911361E-05       4    7    1        -0.2442119003E-03      0.6193425772E-03

    ------------------------------------------------
       NWT REQUIRED            4 OUTER ITERATIONS 
       AND A TOTAL OF          6 INNER ITERATIONS.
    ------------------------------------------------

 NO OUTPUT CONTROL FOR STRESS PERIOD   14   TIME STEP    4
 
 SOLVING FOR HEAD 
                                                   Max.-Head-Change                         Max.-Flux-Residual
  Residual-Control   Outer-Iter.   Inner-Iter.     Column Row Layer    Maximum-Head-Change  Column Row Layer    Maximum-Flux-Residual          L2-NORM 
          0                 1           2             4    7     1       0.1614796374E-01       4    7    1         0.8470462075E+00      0.2149889191E+01
          0                 2           2             4    7     1      -0.1569910125E-02       4    7    1        -0.8465892007E-01      0.2148809298E+00
          0                 3           1             4    7     1       0.1068244791E-03       4    7    1         0.5921647392E-02      0.1503139338E-01
          0                 4           1             4    7     1      -0.4245317139E-05       4    7    1        -0.2418911386E-03      0.6140959846E-03

    ------------------------------------------------
       NWT REQUIRED            4 OUTER ITERATIONS 
       AND A TOTAL OF          6 INNER ITERATIONS.
    ------------------------------------------------

 NO OUTPUT CONTROL FOR STRESS PERIOD   14   TIME STEP    5
 
 SOLVING FOR HEAD 
                                                   Max.-Head-Change                         Max.-Flux-Residual
  Residual-Control   Outer-Iter.   Inner-Iter.     Column Row Layer    Maximum-Head-Change  Column Row Layer    Maximum-Flux-Residual          L2-NORM 
          0                 1           2             4    7     1       0.1599569724E-01       4    7    1         0.8390330029E+00      0.2131664612E+01
          0                 2           2             4    7     1      -0.1555106664E-02       4    7    1        -0.8385802696E-01      0.2130627192E+00
          0                 3           1             4    7     1       0.1058171777E-03       4    7    1         0.5865627126E-02      0.1490444758E-01
          0                 4           1             4    7     1      -0.4205286236E-05       4    7    1        -0.2396027853E-03      0.6088438605E-03

    ------------------------------------------------
       NWT REQUIRED            4 OUTER ITERATIONS 
       AND A TOTAL OF          6 INNER ITERATIONS.
    ------------------------------------------------

 NO OUTPUT CONTROL FOR STRESS PERIOD   14   TIME STEP    6
 
 SOLVING FOR HEAD 
                                                   Max.-Head-Change                         Max.-Flux-Residual
  Residual-Control   Outer-Iter.   Inner-Iter.     Column Row Layer    Maximum-Head-Change  Column Row Layer    Maximum-Flux-Residual          L2-NORM 
          0                 1           2             4    7     1       0.1584525649E-01       4    7    1         0.8311160891E+00      0.2113728039E+01
          0                 2           2             4    7     1      -0.1540480706E-02       4    7    1        -0.8306675785E-01      0.2112728540E+00
          0                 3           1             4    7     1       0.1048219546E-03       4    7    1         0.5810280031E-02      0.1477962887E-01
          0                 4           1             4    7     1      -0.4165734840E-05       4    7    1        -0.2373419252E-03      0.6039581396E-03

    ------------------------------------------------
       NWT REQUIRED            4 OUTER ITERATIONS 
       AND A TOTAL OF          6 INNER ITERATIONS.
    ------------------------------------------------

 NO OUTPUT CONTROL FOR STRESS PERIOD   14   TIME STEP    7
 
 SOLVING FOR HEAD 
                                                   Max.-Head-Change                         Max.-Flux-Residual
  Residual-Control   Outer-Iter.   Inner-Iter.     Column Row Layer    Maximum-Head-Change  Column Row Layer    Maximum-Flux-Residual          L2-NORM 
          0                 1           2             4    7     1       0.1569675093E-01       4    7    1         0.8233011961E+00      0.2096056295E+01
          0                 2           2             4    7     1      -0.1526042889E-02       4    7    1        -0.8228568547E-01      0.2095090443E+00
          0                 3           1             4    7     1       0.1038395333E-03       4    7    1         0.5755646174E-02      0.1465644357E-01
          0                 4           1             4    7     1      -0.4126692077E-05       4    7    1        -0.2351101843E-03      0.5988982338E-03

    ------------------------------------------------
       NWT REQUIRED            4 OUTER ITERATIONS 
       AND A TOTAL OF          6 INNER ITERATIONS.
    ------------------------------------------------

 NO OUTPUT CONTROL FOR STRESS PERIOD   14   TIME STEP    8
 
 SOLVING FOR HEAD 
                                                   Max.-Head-Change                         Max.-Flux-Residual
  Residual-Control   Outer-Iter.   Inner-Iter.     Column Row Layer    Maximum-Head-Change  Column Row Layer    Maximum-Flux-Residual          L2-NORM 
          0                 1           2             4    7     1       0.1555014149E-01       4    7    1         0.8155866388E+00      0.2078651251E+01
          0                 2           2             4    7     1      -0.1511808274E-02       4    7    1        -0.8151464139E-01      0.2077979018E+00
          0                 3           1             4    7     1       0.1028709381E-03       4    7    1         0.5701713696E-02      0.1453695547E-01
          0                 4           1             4    7     1      -0.4088198704E-05       4    7    1        -0.2329070940E-03      0.5939677762E-03

    ------------------------------------------------
       NWT REQUIRED            4 OUTER ITERATIONS 
       AND A TOTAL OF          6 INNER ITERATIONS.
    ------------------------------------------------

 NO OUTPUT CONTROL FOR STRESS PERIOD   14   TIME STEP    9
 
 SOLVING FOR HEAD 
                                                   Max.-Head-Change                         Max.-Flux-Residual
  Residual-Control   Outer-Iter.   Inner-Iter.     Column Row Layer    Maximum-Head-Change  Column Row Layer    Maximum-Flux-Residual          L2-NORM 
          0                 1           2             4    7     1       0.1540530515E-01       4    7    1         0.8079693873E+00      0.2061480165E+01
          0                 2           2             4    7     1      -0.1497708342E-02       4    7    1        -0.8075332313E-01      0.2060574744E+00
          0                 3           1             4    7     1       0.1019115099E-03       4    7    1         0.5648461656E-02      0.1441535553E-01
          0                 4           1             4    7     1      -0.4050070630E-05       4    7    1        -0.2307318377E-03      0.5889916143E-03

    ------------------------------------------------
       NWT REQUIRED            4 OUTER ITERATIONS 
       AND A TOTAL OF          6 INNER ITERATIONS.
    ------------------------------------------------

 NO OUTPUT CONTROL FOR STRESS PERIOD   14   TIME STEP   10
 
 SOLVING FOR HEAD 
                                                   Max.-Head-Change                         Max.-Flux-Residual
  Residual-Control   Outer-Iter.   Inner-Iter.     Column Row Layer    Maximum-Head-Change  Column Row Layer    Maximum-Flux-Residual          L2-NORM 
          0                 1           2             4    7     1       0.1526213437E-01       4    7    1         0.8004387187E+00      0.2044509870E+01
          0                 2           2             4    7     1      -0.1483789182E-02       4    7    1        -0.8000065847E-01      0.2043630301E+00
          0                 3           1             4    7     1       0.1009643811E-03       4    7    1         0.5595814865E-02      0.1429700620E-01
          0                 4           1             4    7     1      -0.4012430582E-05       4    7    1        -0.2285812780E-03      0.5841759392E-03

    ------------------------------------------------
       NWT REQUIRED            4 OUTER ITERATIONS 
       AND A TOTAL OF          6 INNER ITERATIONS.
    ------------------------------------------------

 NO OUTPUT CONTROL FOR STRESS PERIOD   14   TIME STEP   11
 
 SOLVING FOR HEAD 
                                                   Max.-Head-Change                         Max.-Flux-Residual
  Residual-Control   Outer-Iter.   Inner-Iter.     Column Row Layer    Maximum-Head-Change  Column Row Layer    Maximum-Flux-Residual          L2-NORM 
          0                 1           2             4    7     1       0.1512072706E-01       4    7    1         0.7930007608E+00      0.2027772745E+01
          0                 2           2             4    7     1      -0.1470041469E-02       4    7    1        -0.7925725998E-01      0.2026915355E+00
          0                 3           1             4    7     1       0.1000289181E-03       4    7    1         0.5543816196E-02      0.1418016109E-01
          0                 4           1             4    7     1      -0.3975254268E-05       4    7    1        -0.2264571958E-03      0.5794550679E-03

    ------------------------------------------------
       NWT REQUIRED            4 OUTER ITERATIONS 
       AND A TOTAL OF          6 INNER ITERATIONS.
    ------------------------------------------------

 NO OUTPUT CONTROL FOR STRESS PERIOD   14   TIME STEP   12
 
 SOLVING FOR HEAD 
                                                   Max.-Head-Change                         Max.-Flux-Residual
  Residual-Control   Outer-Iter.   Inner-Iter.     Column Row Layer    Maximum-Head-Change  Column Row Layer    Maximum-Flux-Residual          L2-NORM 
          0                 1           2             4    7     1       0.1498119359E-01       4    7    1         0.7856615958E+00      0.2011268957E+01
          0                 2           2             4    7     1      -0.1456475932E-02       4    7    1        -0.7852373557E-01      0.2010433258E+00
          0                 3           1             4    7     1       0.9910585141E-04       4    7    1         0.5492508204E-02      0.1406498345E-01

    ------------------------------------------------
       NWT REQUIRED            3 OUTER ITERATIONS 
       AND A TOTAL OF          5 INNER ITERATIONS.
    ------------------------------------------------

 NO OUTPUT CONTROL FOR STRESS PERIOD   14   TIME STEP   13
 
 SOLVING FOR HEAD 
                                                   Max.-Head-Change                         Max.-Flux-Residual
  Residual-Control   Outer-Iter.   Inner-Iter.     Column Row Layer    Maximum-Head-Change  Column Row Layer    Maximum-Flux-Residual          L2-NORM 
          0                 1           2             4    7     1       0.1484318235E-01       4    7    1         0.7784022956E+00      0.1994974945E+01
          0                 2           2             4    7     1      -0.1443058387E-02       4    7    1        -0.7779819339E-01      0.1994159661E+00
          0                 3           1             4    7     1       0.9819285456E-04       4    7    1         0.5441758529E-02      0.1395128786E-01

    ------------------------------------------------
       NWT REQUIRED            3 OUTER ITERATIONS 
       AND A TOTAL OF          5 INNER ITERATIONS.
    ------------------------------------------------

 NO OUTPUT CONTROL FOR STRESS PERIOD   14   TIME STEP   14
 
 SOLVING FOR HEAD 
                                                   Max.-Head-Change                         Max.-Flux-Residual
  Residual-Control   Outer-Iter.   Inner-Iter.     Column Row Layer    Maximum-Head-Change  Column Row Layer    Maximum-Flux-Residual          L2-NORM 
          0                 1           2             4    7     1       0.1470685857E-01       4    7    1         0.7712318813E+00      0.1978897379E+01
          0                 2           2             4    7     1      -0.1429804900E-02       4    7    1        -0.7708153512E-01      0.1978100314E+00
          0                 3           1             4    7     1       0.9729102148E-04       4    7    1         0.5391630282E-02      0.1383903289E-01

    ------------------------------------------------
       NWT REQUIRED            3 OUTER ITERATIONS 
       AND A TOTAL OF          5 INNER ITERATIONS.
    ------------------------------------------------

 NO OUTPUT CONTROL FOR STRESS PERIOD   14   TIME STEP   15
 
 SOLVING FOR HEAD 
                                                   Max.-Head-Change                         Max.-Flux-Residual
  Residual-Control   Outer-Iter.   Inner-Iter.     Column Row Layer    Maximum-Head-Change  Column Row Layer    Maximum-Flux-Residual          L2-NORM 
          0                 1           2             4    7     1       0.1457219766E-01       4    7    1         0.7641489589E+00      0.1963032613E+01
          0                 2           2             4    7     1      -0.1416713079E-02       4    7    1        -0.7637362143E-01      0.1962252047E+00
          0                 3           1             4    7     1       0.9640018872E-04       4    7    1         0.5342113683E-02      0.1372825003E-01

    ------------------------------------------------
       NWT REQUIRED            3 OUTER ITERATIONS 
       AND A TOTAL OF          5 INNER ITERATIONS.
    ------------------------------------------------

 NO OUTPUT CONTROL FOR STRESS PERIOD   14   TIME STEP   16
 
 SOLVING FOR HEAD 
                                                   Max.-Head-Change                         Max.-Flux-Residual
  Residual-Control   Outer-Iter.   Inner-Iter.     Column Row Layer    Maximum-Head-Change  Column Row Layer    Maximum-Flux-Residual          L2-NORM 
          0                 1           2             4    7     1       0.1443917451E-01       4    7    1         0.7571522530E+00      0.1947367280E+01
          0                 2           2             4    7     1      -0.1403780481E-02       4    7    1        -0.7567432476E-01      0.1946602792E+00
          0                 3           1             4    7     1       0.9552019028E-04       4    7    1         0.5293199825E-02      0.1361887496E-01

    ------------------------------------------------
       NWT REQUIRED            3 OUTER ITERATIONS 
       AND A TOTAL OF          5 INNER ITERATIONS.
    ------------------------------------------------

 NO OUTPUT CONTROL FOR STRESS PERIOD   14   TIME STEP   17
 
 SOLVING FOR HEAD 
                                                   Max.-Head-Change                         Max.-Flux-Residual
  Residual-Control   Outer-Iter.   Inner-Iter.     Column Row Layer    Maximum-Head-Change  Column Row Layer    Maximum-Flux-Residual          L2-NORM 
          0                 1           2             4    7     1       0.1430776486E-01       4    7    1         0.7502404621E+00      0.1931895790E+01
          0                 2           2             4    7     1      -0.1391004750E-02       4    7    1        -0.7498351515E-01      0.1931145785E+00
          0                 3           1             4    7     1       0.9465086581E-04       4    7    1         0.5244879602E-02      0.1351077331E-01

    ------------------------------------------------
       NWT REQUIRED            3 OUTER ITERATIONS 
       AND A TOTAL OF          5 INNER ITERATIONS.
    ------------------------------------------------

 NO OUTPUT CONTROL FOR STRESS PERIOD   14   TIME STEP   18
 
 SOLVING FOR HEAD 
                                                   Max.-Head-Change                         Max.-Flux-Residual
  Residual-Control   Outer-Iter.   Inner-Iter.     Column Row Layer    Maximum-Head-Change  Column Row Layer    Maximum-Flux-Residual          L2-NORM 
          0                 1           2             4    7     1       0.1417808013E-01       4    7    1         0.7434196892E+00      0.1916631066E+01
          0                 2           2             4    7     1      -0.1378396718E-02       4    7    1        -0.7430180255E-01      0.1915894693E+00
          0                 3           1             4    7     1       0.9379295230E-04       4    7    1         0.5197195680E-02      0.1340391354E-01

    ------------------------------------------------
       NWT REQUIRED            3 OUTER ITERATIONS 
       AND A TOTAL OF          5 INNER ITERATIONS.
    ------------------------------------------------

 NO OUTPUT CONTROL FOR STRESS PERIOD   14   TIME STEP   19
 
 SOLVING FOR HEAD 
                                                   Max.-Head-Change                         Max.-Flux-Residual
  Residual-Control   Outer-Iter.   Inner-Iter.     Column Row Layer    Maximum-Head-Change  Column Row Layer    Maximum-Flux-Residual          L2-NORM 
          0                 1           2             4    7     1       0.1404981673E-01       4    7    1         0.7366736282E+00      0.1901549584E+01
          0                 2           2             4    7     1      -0.1365926868E-02       4    7    1        -0.7362755714E-01      0.1900825932E+00
          0                 3           1             4    7     1       0.9294444182E-04       4    7    1         0.5150034103E-02      0.1329876824E-01

    ------------------------------------------------
       NWT REQUIRED            3 OUTER ITERATIONS 
       AND A TOTAL OF          5 INNER ITERATIONS.
    ------------------------------------------------

 NO OUTPUT CONTROL FOR STRESS PERIOD   14   TIME STEP   20
 
 SOLVING FOR HEAD 
                                                   Max.-Head-Change                         Max.-Flux-Residual
  Residual-Control   Outer-Iter.   Inner-Iter.     Column Row Layer    Maximum-Head-Change  Column Row Layer    Maximum-Flux-Residual          L2-NORM 
          0                 1           2             4    7     1       0.1392309966E-01       4    7    1         0.7300086212E+00      0.1886647419E+01
          0                 2           2             4    7     1      -0.1353607355E-02       4    7    1        -0.7296141283E-01      0.1885935935E+00
          0                 3           1             4    7     1       0.9210616047E-04       4    7    1         0.5103439152E-02      0.1319465078E-01

    ------------------------------------------------
       NWT REQUIRED            3 OUTER ITERATIONS 
       AND A TOTAL OF          5 INNER ITERATIONS.
    ------------------------------------------------

 NO OUTPUT CONTROL FOR STRESS PERIOD   14   TIME STEP   21
 
 SOLVING FOR HEAD 
                                                   Max.-Head-Change                         Max.-Flux-Residual
  Residual-Control   Outer-Iter.   Inner-Iter.     Column Row Layer    Maximum-Head-Change  Column Row Layer    Maximum-Flux-Residual          L2-NORM 
          0                 1           2             4    7     1       0.1379803305E-01       4    7    1         0.7234311507E+00      0.1871935220E+01
          0                 2           2             4    7     1      -0.1341448301E-02       4    7    1        -0.7230401760E-01      0.1871235542E+00
          0                 3           1             4    7     1       0.9127879805E-04       4    7    1         0.5057456187E-02      0.1309188704E-01

    ------------------------------------------------
       NWT REQUIRED            3 OUTER ITERATIONS 
       AND A TOTAL OF          5 INNER ITERATIONS.
    ------------------------------------------------

 NO OUTPUT CONTROL FOR STRESS PERIOD   14   TIME STEP   22
 
 SOLVING FOR HEAD 
                                                   Max.-Head-Change                         Max.-Flux-Residual
  Residual-Control   Outer-Iter.   Inner-Iter.     Column Row Layer    Maximum-Head-Change  Column Row Layer    Maximum-Flux-Residual          L2-NORM 
          0                 1           2             4    7     1       0.1367432030E-01       4    7    1         0.7169245297E+00      0.1857385934E+01
          0                 2           2             4    7     1      -0.1331572454E-02       4    7    1        -0.7178936185E-01      0.1857047416E+00
          0                 3           1             4    7     1       0.9060683482E-04       4    7    1         0.5021458317E-02      0.1299268080E-01

    ------------------------------------------------
       NWT REQUIRED            3 OUTER ITERATIONS 
       AND A TOTAL OF          5 INNER ITERATIONS.
    ------------------------------------------------

 NO OUTPUT CONTROL FOR STRESS PERIOD   14   TIME STEP   23
 
 SOLVING FOR HEAD 
                                                   Max.-Head-Change                         Max.-Flux-Residual
  Residual-Control   Outer-Iter.   Inner-Iter.     Column Row Layer    Maximum-Head-Change  Column Row Layer    Maximum-Flux-Residual          L2-NORM 
          0                 1           2             4    7     1       0.1354768684E-01       4    7    1         0.7103880840E+00      0.1842998133E+01
          0                 2           2             4    7     1      -0.1317110052E-02       4    7    1        -0.7100042814E-01      0.1842319311E+00
          0                 3           1             4    7     1       0.8962273612E-04       4    7    1         0.4966274236E-02      0.1288966611E-01

    ------------------------------------------------
       NWT REQUIRED            3 OUTER ITERATIONS 
       AND A TOTAL OF          5 INNER ITERATIONS.
    ------------------------------------------------

 NO OUTPUT CONTROL FOR STRESS PERIOD   14   TIME STEP   24
 
 SOLVING FOR HEAD 
                                                   Max.-Head-Change                         Max.-Flux-Residual
  Residual-Control   Outer-Iter.   Inner-Iter.     Column Row Layer    Maximum-Head-Change  Column Row Layer    Maximum-Flux-Residual          L2-NORM 
          0                 1           2             4    7     1       0.1342489789E-01       4    7    1         0.7039222629E+00      0.1828778234E+01
          0                 2           2             4    7     1      -0.1305172419E-02       4    7    1        -0.7035419084E-01      0.1828109169E+00
          0                 3           1             4    7     1       0.8881043937E-04       4    7    1         0.4921071705E-02      0.1279030618E-01

    ------------------------------------------------
       NWT REQUIRED            3 OUTER ITERATIONS 
       AND A TOTAL OF          5 INNER ITERATIONS.
    ------------------------------------------------

 NO OUTPUT CONTROL FOR STRESS PERIOD   14   TIME STEP   25
 
 SOLVING FOR HEAD 
                                                   Max.-Head-Change                         Max.-Flux-Residual
  Residual-Control   Outer-Iter.   Inner-Iter.     Column Row Layer    Maximum-Head-Change  Column Row Layer    Maximum-Flux-Residual          L2-NORM 
          0                 1           2             4    7     1       0.1330370525E-01       4    7    1         0.6975410980E+00      0.1814726416E+01
          0                 2           2             4    7     1      -0.1293389981E-02       4    7    1        -0.6971641476E-01      0.1814066868E+00
          0                 3           1             4    7     1       0.8800870310E-04       4    7    1         0.4876461006E-02      0.1269208460E-01

    ------------------------------------------------
       NWT REQUIRED            3 OUTER ITERATIONS 
       AND A TOTAL OF          5 INNER ITERATIONS.
    ------------------------------------------------

 NO OUTPUT CONTROL FOR STRESS PERIOD   14   TIME STEP   26
 
 SOLVING FOR HEAD 
                                                   Max.-Head-Change                         Max.-Flux-Residual
  Residual-Control   Outer-Iter.   Inner-Iter.     Column Row Layer    Maximum-Head-Change  Column Row Layer    Maximum-Flux-Residual          L2-NORM 
          0                 1           2             4    7     1       0.1318407323E-01       4    7    1         0.6912426984E+00      0.1800832807E+01
          0                 2           2             4    7     1      -0.1281759267E-02       4    7    1        -0.6908691088E-01      0.1800182236E+00
          0                 3           1             4    7     1       0.8721729063E-04       4    7    1         0.4832428921E-02      0.1259498167E-01

    ------------------------------------------------
       NWT REQUIRED            3 OUTER ITERATIONS 
       AND A TOTAL OF          5 INNER ITERATIONS.
    ------------------------------------------------

 NO OUTPUT CONTROL FOR STRESS PERIOD   14   TIME STEP   27
 
 SOLVING FOR HEAD 
                                                   Max.-Head-Change                         Max.-Flux-Residual
  Residual-Control   Outer-Iter.   Inner-Iter.     Column Row Layer    Maximum-Head-Change  Column Row Layer    Maximum-Flux-Residual          L2-NORM 
          0                 1           2             4    7     1       0.1306597595E-01       4    7    1         0.6850252135E+00      0.1787112075E+01
          0                 2           2             4    7     1      -0.1270277764E-02       4    7    1        -0.6846549422E-01      0.1786470332E+00
          0                 3           1             4    7     1       0.8643603145E-04       4    7    1         0.4788962522E-02      0.1249908462E-01

    ------------------------------------------------
       NWT REQUIRED            3 OUTER ITERATIONS 
       AND A TOTAL OF          5 INNER ITERATIONS.
    ------------------------------------------------

 NO OUTPUT CONTROL FOR STRESS PERIOD   14   TIME STEP   28
 
 SOLVING FOR HEAD 
                                                   Max.-Head-Change                         Max.-Flux-Residual
  Residual-Control   Outer-Iter.   Inner-Iter.     Column Row Layer    Maximum-Head-Change  Column Row Layer    Maximum-Flux-Residual          L2-NORM 
          0                 1           2             4    7     1       0.1294951408E-01       4    7    1         0.6788946657E+00      0.1773551405E+01
          0                 2           2             4    7     1      -0.1258955259E-02       4    7    1        -0.6785276676E-01      0.1772917924E+00
          0                 3           1             4    7     1       0.8566559108E-04       4    7    1         0.4746103906E-02      0.1240432044E-01

    ------------------------------------------------
       NWT REQUIRED            3 OUTER ITERATIONS 
       AND A TOTAL OF          5 INNER ITERATIONS.
    ------------------------------------------------

 NO OUTPUT CONTROL FOR STRESS PERIOD   14   TIME STEP   29
 
 SOLVING FOR HEAD 
                                                   Max.-Head-Change                         Max.-Flux-Residual
  Residual-Control   Outer-Iter.   Inner-Iter.     Column Row Layer    Maximum-Head-Change  Column Row Layer    Maximum-Flux-Residual          L2-NORM 
          0                 1           2             4    7     1       0.1283452001E-01       4    7    1         0.6728415479E+00      0.1760145208E+01
          0                 2           2             4    7     1      -0.1247775454E-02       4    7    1        -0.6724777822E-01      0.1759519403E+00
          0                 3           1             4    7     1       0.8490486094E-04       4    7    1         0.4703786623E-02      0.1231054282E-01

    ------------------------------------------------
       NWT REQUIRED            3 OUTER ITERATIONS 
       AND A TOTAL OF          5 INNER ITERATIONS.
    ------------------------------------------------

 NO OUTPUT CONTROL FOR STRESS PERIOD   14   TIME STEP   30



 STREAM LISTING     PERIOD     14   STEP       30

 LAYER ROW COL. STREAM  RCH.  FLOW INTO     FLOW TO   FLOW OUT OF   OVRLND.     DIRECT     STREAM       STREAM     STREAM     STREAM   STREAMBED  STREAMBED
                SEG.NO.  NO.  STRM. RCH.    AQUIFER    STRM. RCH.    RUNOFF     PRECIP       ET          HEAD       DEPTH      WIDTH   CONDCTNC.   GRADIENT

   1    1    1     1     1    1.9000E+01  2.1427E-01   1.8786E+01  0.000E+00  0.000E+00  0.000E+00  1.09413E+03  1.082E+00  1.166E+01  5.249E-02  1.361E+00
   1    2    2     1     2    1.8786E+01  3.3055E-01   1.8455E+01  0.000E+00  0.000E+00  0.000E+00  1.08914E+03  1.077E+00  1.158E+01  8.107E-02  1.359E+00
   1    3    3     1     3    1.8455E+01  2.8065E-01   1.8175E+01  0.000E+00  0.000E+00  0.000E+00  1.08349E+03  1.072E+00  1.149E+01  6.892E-02  1.357E+00
   1    3    4     1     4    1.8175E+01  2.5740E-01   1.7917E+01  0.000E+00  0.000E+00  0.000E+00  1.07848E+03  1.068E+00  1.140E+01  6.328E-02  1.356E+00
   1    4    5     2     1    1.5917E+01  3.0543E-01   1.5612E+01  0.000E+00  0.000E+00  0.000E+00  1.07285E+03  9.157E-01  1.200E+01  7.800E-02  1.305E+00
   1    5    6     2     2    1.5612E+01  2.3438E-01   1.5378E+01  0.000E+00  0.000E+00  0.000E+00  1.06742E+03  9.063E-01  1.200E+01  6.000E-02  1.302E+00
   1    6    6     2     3    1.5378E+01  2.3388E-01   1.5144E+01  0.000E+00  0.000E+00  0.000E+00  1.06269E+03  8.980E-01  1.200E+01  6.000E-02  1.299E+00
   1    7    6     2     4    1.5144E+01  2.3339E-01   1.4910E+01  0.000E+00  0.000E+00  0.000E+00  1.05797E+03  8.898E-01  1.200E+01  6.000E-02  1.297E+00
   1    8    6     2     5    1.4910E+01  2.3289E-01   1.4677E+01  0.000E+00  0.000E+00  0.000E+00  1.05324E+03  8.814E-01  1.200E+01  6.000E-02  1.294E+00
   1    3    5     3     1    2.0000E+00  2.8252E-01   1.7175E+00  0.000E+00  0.000E+00  0.000E+00  1.07555E+03  1.909E+00  9.636E+00  7.227E-02  1.955E+00
   1    3    6     3     2    1.7175E+00  2.4905E-01   1.4684E+00  0.000E+00  0.000E+00  0.000E+00  1.07264E+03  1.727E+00  8.909E+00  6.682E-02  1.864E+00
   1    3    7     3     3    1.4684E+00  1.9718E-01   1.2712E+00  0.000E+00  0.000E+00  0.000E+00  1.06987E+03  1.555E+00  8.218E+00  5.547E-02  1.777E+00
   1    4    8     3     4    1.2712E+00  2.2567E-01   1.0456E+00  0.000E+00  0.000E+00  0.000E+00  1.06682E+03  1.364E+00  7.455E+00  6.709E-02  1.682E+00
   1    5    8     3     5    1.0456E+00  1.5790E-01   8.8768E-01  0.000E+00  0.000E+00  0.000E+00  1.06362E+03  1.164E+00  6.655E+00  4.991E-02  1.582E+00
   1    6    8     3     6    8.8768E-01  5.5980E-02   8.3170E-01  0.000E+00  0.000E+00  0.000E+00  1.06158E+03  1.036E+00  6.145E+00  1.844E-02  1.518E+00
   1    5   10     4     1    1.0000E+01  9.0919E-02   9.9091E+00  0.000E+00  0.000E+00  0.000E+00  1.07836E+03  6.368E-01  1.000E+01  2.500E-02  1.212E+00
   1    5    9     4     2    9.9091E+00  1.8158E-01   9.7275E+00  0.000E+00  0.000E+00  0.000E+00  1.07154E+03  6.315E-01  1.000E+01  5.000E-02  1.211E+00
   1    6    8     4     3    9.7275E+00  1.2689E-01   9.6006E+00  0.000E+00  0.000E+00  0.000E+00  1.06381E+03  6.256E-01  1.000E+01  3.500E-02  1.209E+00
   1    6    8     5     1    1.0432E+01  2.2686E-01   1.0205E+01  0.000E+00  0.000E+00  0.000E+00  1.05868E+03  6.790E-01  1.542E+01  6.166E-02  1.226E+00
   1    7    7     5     2    1.0205E+01  2.7894E-01   9.9265E+00  0.000E+00  0.000E+00  0.000E+00  1.05417E+03  6.732E-01  1.519E+01  7.594E-02  1.224E+00
   1    8    7     5     3    9.9265E+00  1.9221E-01   9.7343E+00  0.000E+00  0.000E+00  0.000E+00  1.04992E+03  6.676E-01  1.497E+01  5.241E-02  1.223E+00
   1    8    6     5     4    9.7343E+00  1.3577E-01   9.5985E+00  0.000E+00  0.000E+00  0.000E+00  1.04691E+03  6.637E-01  1.482E+01  3.706E-02  1.221E+00
   1    9    6     6     1    2.4276E+01  2.5176E-01   2.4024E+01  0.000E+00  0.000E+00  0.000E+00  1.04392E+03  1.196E+00  1.200E+01  6.000E-02  1.399E+00
   1   10    7     6     2    2.4024E+01  2.5131E-01   2.3773E+01  0.000E+00  0.000E+00  0.000E+00  1.03937E+03  1.188E+00  1.200E+01  6.000E-02  1.396E+00
   1   11    7     6     3    2.3773E+01  2.5086E-01   2.3522E+01  0.000E+00  0.000E+00  0.000E+00  1.03482E+03  1.181E+00  1.200E+01  6.000E-02  1.394E+00
   1   12    7     6     4    2.3522E+01  2.5041E-01   2.3272E+01  0.000E+00  0.000E+00  0.000E+00  1.03026E+03  1.173E+00  1.200E+01  6.000E-02  1.391E+00
   1   13    7     6     5    2.3272E+01 -1.2580E-02   2.3284E+01  0.000E+00  0.000E+00  0.000E+00  1.02708E+03  1.170E+00  1.200E+01  2.400E-01 -1.747E-02
   1   14    9     7     1    1.5000E+02  1.3295E+00   1.4867E+02  0.000E+00  0.000E+00  0.000E+00  1.03987E+03  2.288E+00  5.529E+01  5.593E-01  7.924E-01
   1   13    8     7     2    1.4867E+02  1.8075E+00   1.4686E+02  0.000E+00  0.000E+00  0.000E+00  1.03478E+03  2.279E+00  5.526E+01  6.148E-01  9.800E-01
   1   13    7     7     3    1.4686E+02  1.4290E+00   1.4543E+02  0.000E+00  0.000E+00  0.000E+00  1.02969E+03  2.271E+00  5.522E+01  5.585E-01  8.529E-01
   1   13    6     8     1    1.6872E+02  8.8083E-01   1.6784E+02  0.000E+00  0.000E+00  0.000E+00  1.02482E+03  2.941E+00  4.264E+01  4.346E-01  6.757E-01
   1   13    5     8     2    1.6784E+02  1.4829E-01   1.6769E+02  0.000E+00  0.000E+00  0.000E+00  1.01856E+03  2.938E+00  4.259E+01  4.341E-01  1.139E-01
   1   13    4     8     3    1.6769E+02 -2.5060E+00   1.7020E+02  0.000E+00  0.000E+00  0.000E+00  1.01232E+03  2.945E+00  4.271E+01  4.352E+00 -1.919E-01
   1   13    3     8     4    1.7020E+02 -3.6997E+00   1.7389E+02  0.000E+00  0.000E+00  0.000E+00  1.00609E+03  2.965E+00  4.300E+01  4.382E+00 -2.814E-01
   1   13    2     8     5    1.7389E+02 -2.6037E+00   1.7650E+02  0.000E+00  0.000E+00  0.000E+00  9.99861E+02  2.986E+00  4.329E+01  4.412E+00 -1.967E-01
   1   13    1     8     6    1.7650E+02 -2.0002E+00   1.7850E+02  0.000E+00  0.000E+00  0.000E+00  9.94875E+02  3.000E+00  4.351E+01  2.660E+00 -2.507E-01





UNSATURATED ZONE PACKAGE VOLUMETRIC BUDGET FOR  TIME STEP    30 STRESS PERIOD   14
  ------------------------------------------------------------------------------



     CUMULATIVE VOLUMES      L**3       RATES FOR THIS TIME STEP      L**3/T
     ------------------                 ------------------------

           IN:                                      IN:
           ---                                      ---
        INFILTRATION =   504889920.5942          INFILTRATION =           0.8475

          OUT:                                     OUT:
          ----                                     ----
              UZF ET =   432028582.4806                UZF ET =           0.7500
        UZF RECHARGE =    72021538.6570          UZF RECHARGE =           0.0002

            IN - OUT =      839799.4566              IN - OUT =       9.7337E-02

          STORAGE:                                 STORAGE:
          --------                                 --------
      STORAGE CHANGE =      839792.2850        STORAGE CHANGE =       9.7337E-02

 PERCENT DISCREPANCY IS DIFFERENCE BETWEEN IN-OUT MINUS CHANGE IN STORAGE
 DIVIDED BY THE AVERAGE OF IN AND OUT TIMES 100

 PERCENT DISCREPANCY =           0.00     PERCENT DISCREPANCY =           0.00






1
  VOLUMETRIC BUDGET FOR AGRICULTURAL FIELDS AT  END OF TIME STEP   30, STRESS PERIOD  14
  ------------------------------------------------------------------------------

     CUMULATIVE VOLUMES      L**3       RATES FOR THIS TIME STEP      L**3/T
     ------------------                 ------------------------

           IN:                                      IN:
           ---                                      ---
               AG WELLS  =   475840128.0000                 AG WELLS  =           0.0000
      DIVERSION SEGMENTS =           0.0000        DIVERSION SEGMENTS =           0.0000
           GW IRRIGATION =           0.0000             GW IRRIGATION =           0.0000
           SW IRRIGATION =           0.0000             SW IRRIGATION =           0.0000
        SYSTEM LOSSES GW =           0.0000          SYSTEM LOSSES GW =           0.0000
        SYSTEM LOSSES SW =           0.0000          SYSTEM LOSSES SW =           0.0000

                TOTAL IN =   475840128.0000                  TOTAL IN =           0.0000

          OUT:                                     OUT:
          ----                                     ----
               AG WELLS  =           0.0000                 AG WELLS  =           0.0000
      DIVERSION SEGMENTS =           0.0000        DIVERSION SEGMENTS =           0.0000
           GW IRRIGATION =   475840128.0000             GW IRRIGATION =           0.0000
           SW IRRIGATION =           0.0000             SW IRRIGATION =           0.0000
        SYSTEM LOSSES GW =           0.0000          SYSTEM LOSSES GW =           0.0000
        SYSTEM LOSSES SW =           0.0000          SYSTEM LOSSES SW =           0.0000

               TOTAL OUT =   475840128.0000                 TOTAL OUT =           0.0000

                IN - OUT =           0.0000                  IN - OUT =           0.0000

     PERCENT DISCREPANCY =           0.00         PERCENT DISCREPANCY =           0.00



1
  VOLUMETRIC BUDGET FOR ENTIRE MODEL AT END OF TIME STEP   30, STRESS PERIOD  14
  ------------------------------------------------------------------------------

     CUMULATIVE VOLUMES      L**3       RATES FOR THIS TIME STEP      L**3/T
     ------------------                 ------------------------

           IN:                                      IN:
           ---                                      ---
             STORAGE     =   612390912.0000               STORAGE     =           5.6651
       CONSTANT HEAD     =           0.0000         CONSTANT HEAD     =           0.0000
     HEAD DEP BOUNDS     =     9783329.0000       HEAD DEP BOUNDS     =           0.2853
      STREAM LEAKAGE     =   424236800.0000        STREAM LEAKAGE     =          11.3237
        UZF RECHARGE     =    72021544.0000          UZF RECHARGE     =       1.6328E-04
               GW ET     =           0.0000                 GW ET     =           0.0000
     SURFACE LEAKAGE     =           0.0000       SURFACE LEAKAGE     =           0.0000
           AG WELLS      =           0.0000             AG WELLS      =           0.0000

                TOTAL IN =  1118432640.0000                  TOTAL IN =          17.2743

          OUT:                                     OUT:
          ----                                     ----
             STORAGE     =   261477696.0000               STORAGE     =           6.1624
       CONSTANT HEAD     =           0.0000         CONSTANT HEAD     =           0.0000
     HEAD DEP BOUNDS     =    10088054.0000       HEAD DEP BOUNDS     =           0.2898
      STREAM LEAKAGE     =   357271488.0000        STREAM LEAKAGE     =          10.8222
        UZF RECHARGE     =           0.0000          UZF RECHARGE     =           0.0000
               GW ET     =    13750637.0000                 GW ET     =           0.0000
     SURFACE LEAKAGE     =           0.0000       SURFACE LEAKAGE     =           0.0000
           AG WELLS      =   475840128.0000             AG WELLS      =           0.0000

               TOTAL OUT =  1118428032.0000                 TOTAL OUT =          17.2744

                IN - OUT =        4608.0000                  IN - OUT =      -1.3542E-04

     PERCENT DISCREPANCY =           0.00         PERCENT DISCREPANCY =          -0.00






         TIME SUMMARY AT END OF TIME STEP   30 IN STRESS PERIOD   14
                    SECONDS     MINUTES      HOURS       DAYS        YEARS
                    -----------------------------------------------------------
   TIME STEP LENGTH  87667.      1461.1      24.352      1.0147     2.77799E-03
 STRESS PERIOD TIME 2.63000E+06  43833.      730.56      30.440     8.33397E-02
         TOTAL TIME 3.42763E+07 5.71272E+05  9521.2      396.72      1.0862    
1
1
                            STRESS PERIOD NO.   15, LENGTH =   2630000.    
                            -----------------------------------------------

                              NUMBER OF TIME STEPS =    30

                               MULTIPLIER FOR DELT =     1.000

                            INITIAL TIME STEP SIZE =   87666.66    

 REUSING NON-PARAMETER GHB CELLS FROM LAST STRESS PERIOD

      2 GHB CELLS

 REUSING STREAM SEGMENT DATA FROM LAST STRESS PERIOD



            AREAL INFILTRATION RATE
 READING ON UNIT   19 WITH FORMAT: (FREE)              

            1           2           3           4           5           6           7           8           9          10
 ........................................................................................................................
   1   1.0000E-10  2.0000E-10   0.000       0.000       0.000       0.000       0.000       0.000       0.000       0.000    
   2   2.0000E-10  1.0000E-10  2.0000E-10   0.000       0.000      8.0000E-10  8.0000E-10  5.0000E-10   0.000       0.000    
   3    0.000      5.0000E-10  1.0000E-10  1.0000E-10  8.0000E-10  8.0000E-10  5.0000E-10  5.0000E-10   0.000       0.000    
   4   8.0000E-10  5.0000E-10  1.0000E-10  1.0000E-10  1.0000E-10  1.0000E-10  1.0000E-10  1.0000E-10  2.0000E-10   0.000    
   5   8.0000E-10  5.0000E-10  1.0000E-10  1.0000E-10  1.0000E-10  1.0000E-10  1.0000E-10  1.0000E-10  1.0000E-10  1.0000E-10
   6   8.0000E-10  5.0000E-10  5.0000E-10  2.0000E-10  2.0000E-10  1.0000E-10  1.0000E-10  1.0000E-10  1.0000E-10  5.0000E-10
   7   8.0000E-10  5.0000E-10  5.0000E-10  2.0000E-10  2.0000E-10  1.0000E-10  1.0000E-10  2.0000E-10  2.0000E-10   0.000    
   8    0.000      5.0000E-10  5.0000E-10  2.0000E-10  2.0000E-10  1.0000E-10  1.0000E-10  2.0000E-10  5.0000E-10   0.000    
   9    0.000      5.0000E-10  5.0000E-10  2.0000E-10  2.0000E-10  1.0000E-10  1.0000E-10  2.0000E-10  5.0000E-10   0.000    
  10    0.000      5.0000E-10  5.0000E-10  2.0000E-10  2.0000E-10  1.0000E-10  1.0000E-10  2.0000E-10  5.0000E-10  8.0000E-10
  11    0.000      1.0000E-10  1.0000E-10  1.0000E-10  1.0000E-10  1.0000E-10  1.0000E-10  2.0000E-10  5.0000E-10   0.000    
  12   1.0000E-10  1.0000E-10  1.0000E-10  1.0000E-10  1.0000E-10  1.0000E-10  1.0000E-10  1.0000E-10  2.0000E-10   0.000    
  13   1.0000E-10  1.0000E-10  2.0000E-10  2.0000E-10  2.0000E-10  2.0000E-10  2.0000E-10  1.0000E-10  1.0000E-10   0.000    
  14    0.000      2.0000E-10  5.0000E-10  5.0000E-10  5.0000E-10  5.0000E-10  5.0000E-10  2.0000E-10  1.0000E-10   0.000    
  15    0.000       0.000      8.0000E-10  8.0000E-10  8.0000E-10  8.0000E-10   0.000       0.000       0.000       0.000    

                  ET RATE =  5.000000E-10

 USING ET EXTINCTION DEPTH FROM PREVIOUS STRESS PERIOD. CURRENT PERIOD IS:      15

 USING EXTINCTION WATER CONTENT FROM PREVIOUS STRESS PERIOD. CURRENT PERIOD IS:      15

 USING AIR ENTRY PRESSURE FROM PREVIOUS STRESS PERIOD. CURRENT PERIOD IS:      15

 USING ROOT PRESSURE HEAD FROM PREVIOUS STRESS PERIOD. CURRENT PERIOD IS:      15

 USING ROOT ACTIVITY FROM PREVIOUS STRESS PERIOD. CURRENT PERIOD IS:      15

 PROCESSING AG STRESS PERIOD DATA

 READING AG STRESS PERIOD DATA

 READING IRRIGATION WELL

 END PROCESSING AG STRESS PERIOD DATA OPTIONS
 
 SOLVING FOR HEAD 
                                                   Max.-Head-Change                         Max.-Flux-Residual
  Residual-Control   Outer-Iter.   Inner-Iter.     Column Row Layer    Maximum-Head-Change  Column Row Layer    Maximum-Flux-Residual          L2-NORM 
          0                 1           2             4    7     1       0.1272096241E-01       4    7    1         0.6668645322E+00      0.1746897965E+01
          0                 2           2             4    7     1      -0.1236735307E-02       4    7    1        -0.6665039594E-01      0.1746280834E+00
          0                 3           1             4    7     1       0.8415363335E-04       4    7    1         0.4662001353E-02      0.1221804161E-01

    ------------------------------------------------
       NWT REQUIRED            3 OUTER ITERATIONS 
       AND A TOTAL OF          5 INNER ITERATIONS.
    ------------------------------------------------

 NO OUTPUT CONTROL FOR STRESS PERIOD   15   TIME STEP    1
 
 SOLVING FOR HEAD 
                                                   Max.-Head-Change                         Max.-Flux-Residual
  Residual-Control   Outer-Iter.   Inner-Iter.     Column Row Layer    Maximum-Head-Change  Column Row Layer    Maximum-Flux-Residual          L2-NORM 
          0                 1           2             4    7     1       0.1260895738E-01       4    7    1         0.6609693594E+00      0.1731079944E+01
          0                 2           2             4    7     1      -0.1225846100E-02       4    7    1        -0.6606119358E-01      0.1730516593E+00
          0                 3           1             4    7     1       0.8341267738E-04       4    7    1         0.4620788272E-02      0.1210815425E-01

    ------------------------------------------------
       NWT REQUIRED            3 OUTER ITERATIONS 
       AND A TOTAL OF          5 INNER ITERATIONS.
    ------------------------------------------------

 NO OUTPUT CONTROL FOR STRESS PERIOD   15   TIME STEP    2
 
 SOLVING FOR HEAD 
                                                   Max.-Head-Change                         Max.-Flux-Residual
  Residual-Control   Outer-Iter.   Inner-Iter.     Column Row Layer    Maximum-Head-Change  Column Row Layer    Maximum-Flux-Residual          L2-NORM 
          0                 1           2             4    7     1       0.1249834580E-01       4    7    1         0.6551473201E+00      0.1717091824E+01
          0                 2           2             4    7     1      -0.1215092366E-02       4    7    1        -0.6547930072E-01      0.1716178110E+00
          0                 3           1             4    7     1       0.8268093889E-04       4    7    1         0.4580086448E-02      0.1200778975E-01

    ------------------------------------------------
       NWT REQUIRED            3 OUTER ITERATIONS 
       AND A TOTAL OF          5 INNER ITERATIONS.
    ------------------------------------------------

 NO OUTPUT CONTROL FOR STRESS PERIOD   15   TIME STEP    3
 
 SOLVING FOR HEAD 
                                                   Max.-Head-Change                         Max.-Flux-Residual
  Residual-Control   Outer-Iter.   Inner-Iter.     Column Row Layer    Maximum-Head-Change  Column Row Layer    Maximum-Flux-Residual          L2-NORM 
          0                 1           2             4    7     1       0.1238910021E-01       4    7    1         0.6493975291E+00      0.1704294053E+01
          0                 2           2             4    7     1      -0.1204471437E-02       4    7    1        -0.6490462890E-01      0.1703740621E+00
          0                 3           1             4    7     1       0.8195823729E-04       4    7    1         0.4539889735E-02      0.1192079808E-01

    ------------------------------------------------
       NWT REQUIRED            3 OUTER ITERATIONS 
       AND A TOTAL OF          5 INNER ITERATIONS.
    ------------------------------------------------

 NO OUTPUT CONTROL FOR STRESS PERIOD   15   TIME STEP    4
 
 SOLVING FOR HEAD 
                                                   Max.-Head-Change                         Max.-Flux-Residual
  Residual-Control   Outer-Iter.   Inner-Iter.     Column Row Layer    Maximum-Head-Change  Column Row Layer    Maximum-Flux-Residual          L2-NORM 
          0                 1           2             4    7     1       0.1228119704E-01       4    7    1         0.6437185622E+00      0.1691621785E+01
          0                 2           2             4    7     1      -0.1193981018E-02       4    7    1        -0.6433703574E-01      0.1691074593E+00
          0                 3           1             4    7     1       0.8124441627E-04       4    7    1         0.4500188135E-02      0.1183218923E-01

    ------------------------------------------------
       NWT REQUIRED            3 OUTER ITERATIONS 
       AND A TOTAL OF          5 INNER ITERATIONS.
    ------------------------------------------------

 NO OUTPUT CONTROL FOR STRESS PERIOD   15   TIME STEP    5
 
 SOLVING FOR HEAD 
                                                   Max.-Head-Change                         Max.-Flux-Residual
  Residual-Control   Outer-Iter.   Inner-Iter.     Column Row Layer    Maximum-Head-Change  Column Row Layer    Maximum-Flux-Residual          L2-NORM 
          0                 1           2             4    7     1       0.1217474250E-01       4    7    1         0.6381165617E+00      0.1679110983E+01
          0                 2           2             4    7     1      -0.1183631437E-02       4    7    1        -0.6377713524E-01      0.1678569796E+00
          0                 3           1             4    7     1       0.8054017861E-04       4    7    1         0.4461024634E-02      0.1174470794E-01

    ------------------------------------------------
       NWT REQUIRED            3 OUTER ITERATIONS 
       AND A TOTAL OF          5 INNER ITERATIONS.
    ------------------------------------------------

 NO OUTPUT CONTROL FOR STRESS PERIOD   15   TIME STEP    6
 
 SOLVING FOR HEAD 
                                                   Max.-Head-Change                         Max.-Flux-Residual
  Residual-Control   Outer-Iter.   Inner-Iter.     Column Row Layer    Maximum-Head-Change  Column Row Layer    Maximum-Flux-Residual          L2-NORM 
          0                 1           2             4    7     1       0.1206970563E-01       4    7    1         0.6325896701E+00      0.1666750657E+01
          0                 2           2             4    7     1      -0.1173419685E-02       4    7    1        -0.6322474167E-01      0.1666214660E+00
          0                 3           1             4    7     1       0.7984531985E-04       4    7    1         0.4422386226E-02      0.1165829461E-01

    ------------------------------------------------
       NWT REQUIRED            3 OUTER ITERATIONS 
       AND A TOTAL OF          5 INNER ITERATIONS.
    ------------------------------------------------

 NO OUTPUT CONTROL FOR STRESS PERIOD   15   TIME STEP    7
 
 SOLVING FOR HEAD 
                                                   Max.-Head-Change                         Max.-Flux-Residual
  Residual-Control   Outer-Iter.   Inner-Iter.     Column Row Layer    Maximum-Head-Change  Column Row Layer    Maximum-Flux-Residual          L2-NORM 
          0                 1           2             4    7     1       0.1196592034E-01       4    7    1         0.6271289178E+00      0.1654543726E+01
          0                 2           2             4    7     1      -0.1163329613E-02       4    7    1        -0.6267895855E-01      0.1654012617E+00
          0                 3           1             4    7     1       0.7915874028E-04       4    7    1         0.4384210196E-02      0.1157290966E-01

    ------------------------------------------------
       NWT REQUIRED            3 OUTER ITERATIONS 
       AND A TOTAL OF          5 INNER ITERATIONS.
    ------------------------------------------------

 NO OUTPUT CONTROL FOR STRESS PERIOD   15   TIME STEP    8
 
 SOLVING FOR HEAD 
                                                   Max.-Head-Change                         Max.-Flux-Residual
  Residual-Control   Outer-Iter.   Inner-Iter.     Column Row Layer    Maximum-Head-Change  Column Row Layer    Maximum-Flux-Residual          L2-NORM 
          0                 1           2             4    7     1       0.1186336671E-01       4    7    1         0.6217330573E+00      0.1642484986E+01
          0                 2           2             4    7     1      -0.1153359284E-02       4    7    1        -0.6213966119E-01      0.1641958786E+00
          0                 3           1             4    7     1       0.7848030960E-04       4    7    1         0.4346487857E-02      0.1148858161E-01

    ------------------------------------------------
       NWT REQUIRED            3 OUTER ITERATIONS 
       AND A TOTAL OF          5 INNER ITERATIONS.
    ------------------------------------------------

 NO OUTPUT CONTROL FOR STRESS PERIOD   15   TIME STEP    9
 
 SOLVING FOR HEAD 
                                                   Max.-Head-Change                         Max.-Flux-Residual
  Residual-Control   Outer-Iter.   Inner-Iter.     Column Row Layer    Maximum-Head-Change  Column Row Layer    Maximum-Flux-Residual          L2-NORM 
          0                 1           2             4    7     1       0.1176215925E-01       4    7    1         0.6164084212E+00      0.1630568280E+01
          0                 2           2             4    7     1      -0.1143519831E-02       4    7    1        -0.6160748253E-01      0.1630046494E+00
          0                 3           1             4    7     1       0.7781078328E-04       4    7    1         0.4309263400E-02      0.1140523683E-01

    ------------------------------------------------
       NWT REQUIRED            3 OUTER ITERATIONS 
       AND A TOTAL OF          5 INNER ITERATIONS.
    ------------------------------------------------

 NO OUTPUT CONTROL FOR STRESS PERIOD   15   TIME STEP   10
 
 SOLVING FOR HEAD 
                                                   Max.-Head-Change                         Max.-Flux-Residual
  Residual-Control   Outer-Iter.   Inner-Iter.     Column Row Layer    Maximum-Head-Change  Column Row Layer    Maximum-Flux-Residual          L2-NORM 
          0                 1           2             4    7     1       0.1166213357E-01       4    7    1         0.6111462165E+00      0.1618784344E+01
          0                 2           2             4    7     1      -0.1133795272E-02       4    7    1        -0.6108154372E-01      0.1618266802E+00
          0                 3           1             4    7     1       0.7714907558E-04       4    7    1         0.4272475447E-02      0.1132282894E-01

    ------------------------------------------------
       NWT REQUIRED            3 OUTER ITERATIONS 
       AND A TOTAL OF          5 INNER ITERATIONS.
    ------------------------------------------------

 NO OUTPUT CONTROL FOR STRESS PERIOD   15   TIME STEP   11
 
 SOLVING FOR HEAD 
                                                   Max.-Head-Change                         Max.-Flux-Residual
  Residual-Control   Outer-Iter.   Inner-Iter.     Column Row Layer    Maximum-Head-Change  Column Row Layer    Maximum-Flux-Residual          L2-NORM 
          0                 1           2             4    7     1       0.1156340611E-01       4    7    1         0.6059526502E+00      0.1607140908E+01
          0                 2           2             4    7     1      -0.1124196928E-02       4    7    1        -0.6056246512E-01      0.1606627350E+00
          0                 3           1             4    7     1       0.7649595557E-04       4    7    1         0.4236167308E-02      0.1124139929E-01

    ------------------------------------------------
       NWT REQUIRED            3 OUTER ITERATIONS 
       AND A TOTAL OF          5 INNER ITERATIONS.
    ------------------------------------------------

 NO OUTPUT CONTROL FOR STRESS PERIOD   15   TIME STEP   12
 
 SOLVING FOR HEAD 
                                                   Max.-Head-Change                         Max.-Flux-Residual
  Residual-Control   Outer-Iter.   Inner-Iter.     Column Row Layer    Maximum-Head-Change  Column Row Layer    Maximum-Flux-Residual          L2-NORM 
          0                 1           2             4    7     1       0.1146581137E-01       4    7    1         0.6008190293E+00      0.1595624307E+01
          0                 2           2             4    7     1      -0.1114708709E-02       4    7    1        -0.6004937792E-01      0.1595114753E+00
          0                 3           1             4    7     1       0.7585032922E-04       4    7    1         0.4200278275E-02      0.1116083610E-01

    ------------------------------------------------
       NWT REQUIRED            3 OUTER ITERATIONS 
       AND A TOTAL OF          5 INNER ITERATIONS.
    ------------------------------------------------

 NO OUTPUT CONTROL FOR STRESS PERIOD   15   TIME STEP   13
 
 SOLVING FOR HEAD 
                                                   Max.-Head-Change                         Max.-Flux-Residual
  Residual-Control   Outer-Iter.   Inner-Iter.     Column Row Layer    Maximum-Head-Change  Column Row Layer    Maximum-Flux-Residual          L2-NORM 
          0                 1           2             4    7     1       0.1136946601E-01       4    7    1         0.5957515034E+00      0.1584248466E+01
          0                 2           2             4    7     1      -0.1105341956E-02       4    7    1        -0.5954289679E-01      0.1583741532E+00
          0                 3           1             4    7     1       0.7521296834E-04       4    7    1         0.4164851317E-02      0.1108128548E-01

    ------------------------------------------------
       NWT REQUIRED            3 OUTER ITERATIONS 
       AND A TOTAL OF          5 INNER ITERATIONS.
    ------------------------------------------------

 NO OUTPUT CONTROL FOR STRESS PERIOD   15   TIME STEP   14
 
 SOLVING FOR HEAD 
                                                   Max.-Head-Change                         Max.-Flux-Residual
  Residual-Control   Outer-Iter.   Inner-Iter.     Column Row Layer    Maximum-Head-Change  Column Row Layer    Maximum-Flux-Residual          L2-NORM 
          0                 1           2             4    7     1       0.1127421145E-01       4    7    1         0.5907413893E+00      0.1572991150E+01
          0                 2           2             4    7     1      -0.1096081251E-02       4    7    1        -0.5904215373E-01      0.1572489388E+00
          0                 3           1             4    7     1       0.7458282339E-04       4    7    1         0.4129825717E-02      0.1100254657E-01

    ------------------------------------------------
       NWT REQUIRED            3 OUTER ITERATIONS 
       AND A TOTAL OF          5 INNER ITERATIONS.
    ------------------------------------------------

 NO OUTPUT CONTROL FOR STRESS PERIOD   15   TIME STEP   15
 
 SOLVING FOR HEAD 
                                                   Max.-Head-Change                         Max.-Flux-Residual
  Residual-Control   Outer-Iter.   Inner-Iter.     Column Row Layer    Maximum-Head-Change  Column Row Layer    Maximum-Flux-Residual          L2-NORM 
          0                 1           2             4    7     1       0.1118016646E-01       4    7    1         0.5857951980E+00      0.1561867296E+01
          0                 2           2             4    7     1      -0.1086938142E-02       4    7    1        -0.5854779961E-01      0.1561370102E+00
          0                 3           1             4    7     1       0.7396068048E-04       4    7    1         0.4095247029E-02      0.1092483955E-01

    ------------------------------------------------
       NWT REQUIRED            3 OUTER ITERATIONS 
       AND A TOTAL OF          5 INNER ITERATIONS.
    ------------------------------------------------

 NO OUTPUT CONTROL FOR STRESS PERIOD   15   TIME STEP   16
 
 SOLVING FOR HEAD 
                                                   Max.-Head-Change                         Max.-Flux-Residual
  Residual-Control   Outer-Iter.   Inner-Iter.     Column Row Layer    Maximum-Head-Change  Column Row Layer    Maximum-Flux-Residual          L2-NORM 
          0                 1           2             4    7     1       0.1108730529E-01       4    7    1         0.5809117207E+00      0.1550872590E+01
          0                 2           2             4    7     1      -0.1077910125E-02       4    7    1        -0.5805971359E-01      0.1550378252E+00
          0                 3           1             4    7     1       0.7334636861E-04       4    7    1         0.4061106751E-02      0.1084784396E-01

    ------------------------------------------------
       NWT REQUIRED            3 OUTER ITERATIONS 
       AND A TOTAL OF          5 INNER ITERATIONS.
    ------------------------------------------------

 NO OUTPUT CONTROL FOR STRESS PERIOD   15   TIME STEP   17
 
 SOLVING FOR HEAD 
                                                   Max.-Head-Change                         Max.-Flux-Residual
  Residual-Control   Outer-Iter.   Inner-Iter.     Column Row Layer    Maximum-Head-Change  Column Row Layer    Maximum-Flux-Residual          L2-NORM 
          0                 1           2             4    7     1       0.1099546893E-01       4    7    1         0.5760822557E+00      0.1539986608E+01
          0                 2           2             4    7     1      -0.1068981743E-02       4    7    1        -0.5757702596E-01      0.1539495843E+00
          0                 3           1             4    7     1       0.7273883672E-04       4    7    1         0.4027344100E-02      0.1077170708E-01

    ------------------------------------------------
       NWT REQUIRED            3 OUTER ITERATIONS 
       AND A TOTAL OF          5 INNER ITERATIONS.
    ------------------------------------------------

 NO OUTPUT CONTROL FOR STRESS PERIOD   15   TIME STEP   18
 
 SOLVING FOR HEAD 
                                                   Max.-Head-Change                         Max.-Flux-Residual
  Residual-Control   Outer-Iter.   Inner-Iter.     Column Row Layer    Maximum-Head-Change  Column Row Layer    Maximum-Flux-Residual          L2-NORM 
          0                 1           2             4    7     1       0.1090477562E-01       4    7    1         0.5713132926E+00      0.1529222207E+01
          0                 2           2             4    7     1      -0.1060164489E-02       4    7    1        -0.5710038532E-01      0.1528735070E+00
          0                 3           1             4    7     1       0.7213886655E-04       4    7    1         0.3994004411E-02      0.1069641158E-01

    ------------------------------------------------
       NWT REQUIRED            3 OUTER ITERATIONS 
       AND A TOTAL OF          5 INNER ITERATIONS.
    ------------------------------------------------

 NO OUTPUT CONTROL FOR STRESS PERIOD   15   TIME STEP   19
 
 SOLVING FOR HEAD 
                                                   Max.-Head-Change                         Max.-Flux-Residual
  Residual-Control   Outer-Iter.   Inner-Iter.     Column Row Layer    Maximum-Head-Change  Column Row Layer    Maximum-Flux-Residual          L2-NORM 
          0                 1           2             4    7     1       0.1081507436E-01       4    7    1         0.5665962271E+00      0.1518584096E+01
          0                 2           2             4    7     1      -0.1051443682E-02       4    7    1        -0.5662893166E-01      0.1518100359E+00
          0                 3           1             4    7     1       0.7154545873E-04       4    7    1         0.3961027527E-02      0.1062199596E-01

    ------------------------------------------------
       NWT REQUIRED            3 OUTER ITERATIONS 
       AND A TOTAL OF          5 INNER ITERATIONS.
    ------------------------------------------------

 NO OUTPUT CONTROL FOR STRESS PERIOD   15   TIME STEP   20
 
 SOLVING FOR HEAD 
                                                   Max.-Head-Change                         Max.-Flux-Residual
  Residual-Control   Outer-Iter.   Inner-Iter.     Column Row Layer    Maximum-Head-Change  Column Row Layer    Maximum-Flux-Residual          L2-NORM 
          0                 1           2             4    7     1       0.1072647864E-01       4    7    1         0.5619379650E+00      0.1508054304E+01
          0                 2           2             4    7     1      -0.1042830357E-02       4    7    1        -0.5616335527E-01      0.1507574160E+00
          0                 3           1             4    7     1       0.7095936506E-04       4    7    1         0.3928461755E-02      0.1054836681E-01

    ------------------------------------------------
       NWT REQUIRED            3 OUTER ITERATIONS 
       AND A TOTAL OF          5 INNER ITERATIONS.
    ------------------------------------------------

 NO OUTPUT CONTROL FOR STRESS PERIOD   15   TIME STEP   21
 
 SOLVING FOR HEAD 
                                                   Max.-Head-Change                         Max.-Flux-Residual
  Residual-Control   Outer-Iter.   Inner-Iter.     Column Row Layer    Maximum-Head-Change  Column Row Layer    Maximum-Flux-Residual          L2-NORM 
          0                 1           2             4    7     1       0.1063896887E-01       4    7    1         0.5573370234E+00      0.1497643715E+01
          0                 2           2             4    7     1      -0.1034322609E-02       4    7    1        -0.5570350791E-01      0.1497167163E+00
          0                 3           1             4    7     1       0.7038045479E-04       4    7    1         0.3896296701E-02      0.1047554448E-01

    ------------------------------------------------
       NWT REQUIRED            3 OUTER ITERATIONS 
       AND A TOTAL OF          5 INNER ITERATIONS.
    ------------------------------------------------

 NO OUTPUT CONTROL FOR STRESS PERIOD   15   TIME STEP   22
 
 SOLVING FOR HEAD 
                                                   Max.-Head-Change                         Max.-Flux-Residual
  Residual-Control   Outer-Iter.   Inner-Iter.     Column Row Layer    Maximum-Head-Change  Column Row Layer    Maximum-Flux-Residual          L2-NORM 
          0                 1           2             4    7     1       0.1055252643E-01       4    7    1         0.5527923861E+00      0.1487342141E+01
          0                 2           2             4    7     1      -0.1025918629E-02       4    7    1        -0.5524928798E-01      0.1486868768E+00
          0                 3           1             4    7     1       0.6980860577E-04       4    7    1         0.3864525280E-02      0.1040345720E-01

    ------------------------------------------------
       NWT REQUIRED            3 OUTER ITERATIONS 
       AND A TOTAL OF          5 INNER ITERATIONS.
    ------------------------------------------------

 NO OUTPUT CONTROL FOR STRESS PERIOD   15   TIME STEP   23
 
 SOLVING FOR HEAD 
                                                   Max.-Head-Change                         Max.-Flux-Residual
  Residual-Control   Outer-Iter.   Inner-Iter.     Column Row Layer    Maximum-Head-Change  Column Row Layer    Maximum-Flux-Residual          L2-NORM 
          0                 1           2             4    7     1       0.1046699229E-01       4    7    1         0.5482957208E+00      0.1477146879E+01
          0                 2           2             4    7     1      -0.1017602956E-02       4    7    1        -0.5479986274E-01      0.1476677010E+00
          0                 3           1             4    7     1       0.6924276578E-04       4    7    1         0.3833089253E-02      0.1033217444E-01

    ------------------------------------------------
       NWT REQUIRED            3 OUTER ITERATIONS 
       AND A TOTAL OF          5 INNER ITERATIONS.
    ------------------------------------------------

 NO OUTPUT CONTROL FOR STRESS PERIOD   15   TIME STEP   24
 
 SOLVING FOR HEAD 
                                                   Max.-Head-Change                         Max.-Flux-Residual
  Residual-Control   Outer-Iter.   Inner-Iter.     Column Row Layer    Maximum-Head-Change  Column Row Layer    Maximum-Flux-Residual          L2-NORM 
          0                 1           2             4    7     1       0.1038249048E-01       4    7    1         0.5438535173E+00      0.1467062276E+01
          0                 2           2             4    7     1      -0.1009387645E-02       4    7    1        -0.5435588079E-01      0.1466587117E+00
          0                 3           1             4    7     1       0.6868375487E-04       4    7    1         0.3802033939E-02      0.1026132732E-01

    ------------------------------------------------
       NWT REQUIRED            3 OUTER ITERATIONS 
       AND A TOTAL OF          5 INNER ITERATIONS.
    ------------------------------------------------

 NO OUTPUT CONTROL FOR STRESS PERIOD   15   TIME STEP   25
 
 SOLVING FOR HEAD 
                                                   Max.-Head-Change                         Max.-Flux-Residual
  Residual-Control   Outer-Iter.   Inner-Iter.     Column Row Layer    Maximum-Head-Change  Column Row Layer    Maximum-Flux-Residual          L2-NORM 
          0                 1           2             4    7     1       0.1029900271E-01       4    7    1         0.5394648381E+00      0.1457089699E+01
          0                 2           2             4    7     1      -0.1001270920E-02       4    7    1        -0.5391724841E-01      0.1456626804E+00
          0                 3           1             4    7     1       0.6813145199E-04       4    7    1         0.3771352825E-02      0.1019189313E-01

    ------------------------------------------------
       NWT REQUIRED            3 OUTER ITERATIONS 
       AND A TOTAL OF          5 INNER ITERATIONS.
    ------------------------------------------------

 NO OUTPUT CONTROL FOR STRESS PERIOD   15   TIME STEP   26
 
 SOLVING FOR HEAD 
                                                   Max.-Head-Change                         Max.-Flux-Residual
  Residual-Control   Outer-Iter.   Inner-Iter.     Column Row Layer    Maximum-Head-Change  Column Row Layer    Maximum-Flux-Residual          L2-NORM 
          0                 1           2             4    7     1       0.1021637788E-01       4    7    1         0.5351213667E+00      0.1447216991E+01
          0                 2           2             4    7     1      -0.9932380918E-03       4    7    1        -0.5348313443E-01      0.1446756846E+00
          0                 3           1             4    7     1       0.6758485791E-04       4    7    1         0.3740987761E-02      0.1012283233E-01

    ------------------------------------------------
       NWT REQUIRED            3 OUTER ITERATIONS 
       AND A TOTAL OF          5 INNER ITERATIONS.
    ------------------------------------------------

 NO OUTPUT CONTROL FOR STRESS PERIOD   15   TIME STEP   27
 
 SOLVING FOR HEAD 
                                                   Max.-Head-Change                         Max.-Flux-Residual
  Residual-Control   Outer-Iter.   Inner-Iter.     Column Row Layer    Maximum-Head-Change  Column Row Layer    Maximum-Flux-Residual          L2-NORM 
          0                 1           2             4    7     1       0.1013473439E-01       4    7    1         0.5308300061E+00      0.1437446221E+01
          0                 2           2             4    7     1      -0.9853006702E-03       4    7    1        -0.5305422876E-01      0.1436990444E+00
          0                 3           1             4    7     1       0.6704475590E-04       4    7    1         0.3710987013E-02      0.1005452980E-01

    ------------------------------------------------
       NWT REQUIRED            3 OUTER ITERATIONS 
       AND A TOTAL OF          5 INNER ITERATIONS.
    ------------------------------------------------

 NO OUTPUT CONTROL FOR STRESS PERIOD   15   TIME STEP   28
 
 SOLVING FOR HEAD 
                                                   Max.-Head-Change                         Max.-Flux-Residual
  Residual-Control   Outer-Iter.   Inner-Iter.     Column Row Layer    Maximum-Head-Change  Column Row Layer    Maximum-Flux-Residual          L2-NORM 
          0                 1           2             4    7     1       0.1005417889E-01       4    7    1         0.5265895261E+00      0.1553105710E+01
          0                 2           2             4    7     1      -0.9774690154E-03       4    7    1        -0.5263040805E-01      0.1546098914E+00
          0                 3           1             4    7     1       0.6651184946E-04       4    7    1         0.3681341900E-02      0.1075815720E-01

    ------------------------------------------------
       NWT REQUIRED            3 OUTER ITERATIONS 
       AND A TOTAL OF          5 INNER ITERATIONS.
    ------------------------------------------------

 NO OUTPUT CONTROL FOR STRESS PERIOD   15   TIME STEP   29
 
 SOLVING FOR HEAD 
                                                   Max.-Head-Change                         Max.-Flux-Residual
  Residual-Control   Outer-Iter.   Inner-Iter.     Column Row Layer    Maximum-Head-Change  Column Row Layer    Maximum-Flux-Residual          L2-NORM 
          0                 1           2             4   13     1       0.2962071702E-01       4   13    1         0.1715733823E+01      0.3358472572E+01
          0                 2           2             4   13     1      -0.2848846459E-02       4   13    1        -0.1696726375E+00      0.3270417158E+00
          0                 3           2             4   13     1       0.1909578179E-03       4   13    1         0.1169390405E-01      0.2207574999E-01
          0                 4           1             4   13     1      -0.7407437945E-05       4   13    1        -0.4664561784E-03      0.8509131219E-03

    ------------------------------------------------
       NWT REQUIRED            4 OUTER ITERATIONS 
       AND A TOTAL OF          7 INNER ITERATIONS.
    ------------------------------------------------

 NO OUTPUT CONTROL FOR STRESS PERIOD   15   TIME STEP   30



 STREAM LISTING     PERIOD     15   STEP       30

 LAYER ROW COL. STREAM  RCH.  FLOW INTO     FLOW TO   FLOW OUT OF   OVRLND.     DIRECT     STREAM       STREAM     STREAM     STREAM   STREAMBED  STREAMBED
                SEG.NO.  NO.  STRM. RCH.    AQUIFER    STRM. RCH.    RUNOFF     PRECIP       ET          HEAD       DEPTH      WIDTH   CONDCTNC.   GRADIENT

   1    1    1     1     1    9.8001E+01  4.7086E-01   9.7531E+01  0.000E+00  0.000E+00  0.000E+00  1.09484E+03  1.792E+00  2.184E+01  9.826E-02  1.597E+00
   1    2    2     1     2    9.7531E+01  7.3063E-01   9.6800E+01  0.000E+00  0.000E+00  0.000E+00  1.08985E+03  1.790E+00  2.179E+01  1.525E-01  1.597E+00
   1    3    3     1     3    9.6800E+01  6.2448E-01   9.6176E+01  0.000E+00  0.000E+00  0.000E+00  1.08421E+03  1.787E+00  2.174E+01  1.304E-01  1.596E+00
   1    3    4     1     4    9.6176E+01  5.7618E-01   9.5599E+01  0.000E+00  0.000E+00  0.000E+00  1.07919E+03  1.785E+00  2.170E+01  1.204E-01  1.595E+00
   1    4    5     2     1    9.3599E+01  4.4168E-01   9.3158E+01  0.000E+00  0.000E+00  0.000E+00  1.07460E+03  2.663E+00  1.200E+01  7.800E-02  1.888E+00
   1    5    6     2     2    9.3158E+01  3.3935E-01   9.2818E+01  0.000E+00  0.000E+00  0.000E+00  1.06917E+03  2.656E+00  1.200E+01  6.000E-02  1.885E+00
   1    6    6     2     3    9.2818E+01  3.3900E-01   9.2479E+01  0.000E+00  0.000E+00  0.000E+00  1.06444E+03  2.650E+00  1.200E+01  6.000E-02  1.883E+00
   1    7    6     2     4    9.2479E+01  3.3865E-01   9.2141E+01  0.000E+00  0.000E+00  0.000E+00  1.05972E+03  2.644E+00  1.200E+01  6.000E-02  1.881E+00
   1    8    6     2     5    9.2141E+01  3.3830E-01   9.1802E+01  0.000E+00  0.000E+00  0.000E+00  1.05500E+03  2.638E+00  1.200E+01  6.000E-02  1.879E+00
   1    3    5     3     1    2.0000E+00  2.8252E-01   1.7175E+00  0.000E+00  0.000E+00  0.000E+00  1.07555E+03  1.909E+00  9.636E+00  7.227E-02  1.955E+00
   1    3    6     3     2    1.7175E+00  2.4905E-01   1.4684E+00  0.000E+00  0.000E+00  0.000E+00  1.07264E+03  1.727E+00  8.909E+00  6.682E-02  1.864E+00
   1    3    7     3     3    1.4684E+00  1.9718E-01   1.2712E+00  0.000E+00  0.000E+00  0.000E+00  1.06987E+03  1.555E+00  8.218E+00  5.547E-02  1.777E+00
   1    4    8     3     4    1.2712E+00  2.2567E-01   1.0456E+00  0.000E+00  0.000E+00  0.000E+00  1.06682E+03  1.364E+00  7.455E+00  6.709E-02  1.682E+00
   1    5    8     3     5    1.0456E+00  1.5790E-01   8.8768E-01  0.000E+00  0.000E+00  0.000E+00  1.06362E+03  1.164E+00  6.655E+00  4.991E-02  1.582E+00
   1    6    8     3     6    8.8768E-01  5.5980E-02   8.3170E-01  0.000E+00  0.000E+00  0.000E+00  1.06158E+03  1.036E+00  6.145E+00  1.844E-02  1.518E+00
   1    5   10     4     1    1.0000E+01  9.0919E-02   9.9091E+00  0.000E+00  0.000E+00  0.000E+00  1.07836E+03  6.368E-01  1.000E+01  2.500E-02  1.212E+00
   1    5    9     4     2    9.9091E+00  1.8158E-01   9.7275E+00  0.000E+00  0.000E+00  0.000E+00  1.07154E+03  6.315E-01  1.000E+01  5.000E-02  1.211E+00
   1    6    8     4     3    9.7275E+00  1.2689E-01   9.6006E+00  0.000E+00  0.000E+00  0.000E+00  1.06381E+03  6.256E-01  1.000E+01  3.500E-02  1.209E+00
   1    6    8     5     1    1.0432E+01  2.2686E-01   1.0205E+01  0.000E+00  0.000E+00  0.000E+00  1.05868E+03  6.790E-01  1.542E+01  6.166E-02  1.226E+00
   1    7    7     5     2    1.0205E+01  2.7894E-01   9.9265E+00  0.000E+00  0.000E+00  0.000E+00  1.05417E+03  6.732E-01  1.519E+01  7.594E-02  1.224E+00
   1    8    7     5     3    9.9265E+00  1.9221E-01   9.7343E+00  0.000E+00  0.000E+00  0.000E+00  1.04992E+03  6.676E-01  1.497E+01  5.241E-02  1.223E+00
   1    8    6     5     4    9.7343E+00  1.3577E-01   9.5985E+00  0.000E+00  0.000E+00  0.000E+00  1.04691E+03  6.637E-01  1.482E+01  3.706E-02  1.221E+00
   1    9    6     6     1    1.0140E+02  3.4955E-01   1.0105E+02  0.000E+00  0.000E+00  0.000E+00  1.04555E+03  2.826E+00  1.200E+01  6.000E-02  1.942E+00
   1   10    7     6     2    1.0105E+02  3.4920E-01   1.0070E+02  0.000E+00  0.000E+00  0.000E+00  1.04100E+03  2.820E+00  1.200E+01  6.000E-02  1.940E+00
   1   11    7     6     3    1.0070E+02  3.4885E-01   1.0035E+02  0.000E+00  0.000E+00  0.000E+00  1.03645E+03  2.814E+00  1.200E+01  6.000E-02  1.938E+00
   1   12    7     6     4    1.0035E+02  3.4850E-01   1.0000E+02  0.000E+00  0.000E+00  0.000E+00  1.03190E+03  2.808E+00  1.200E+01  6.000E-02  1.936E+00
   1   13    7     6     5    1.0000E+02  3.8606E-02   9.9966E+01  0.000E+00  0.000E+00  0.000E+00  1.02871E+03  2.805E+00  1.200E+01  2.400E-02  5.362E-01
   1   14    9     7     1    1.5000E+02  1.3296E+00   1.4867E+02  0.000E+00  0.000E+00  0.000E+00  1.03987E+03  2.288E+00  5.529E+01  5.593E-01  7.924E-01
   1   13    8     7     2    1.4867E+02  1.8142E+00   1.4686E+02  0.000E+00  0.000E+00  0.000E+00  1.03478E+03  2.279E+00  5.526E+01  6.148E-01  9.837E-01
   1   13    7     7     3    1.4686E+02  1.4433E+00   1.4541E+02  0.000E+00  0.000E+00  0.000E+00  1.02969E+03  2.271E+00  5.522E+01  5.585E-01  8.615E-01
   1   13    6     8     1    2.4538E+02  1.2503E+00   2.4413E+02  0.000E+00  0.000E+00  0.000E+00  1.02526E+03  3.385E+00  4.908E+01  5.001E-01  8.334E-01
   1   13    5     8     2    2.4413E+02  4.0509E-01   2.4372E+02  0.000E+00  0.000E+00  0.000E+00  1.01901E+03  3.380E+00  4.901E+01  4.995E-01  2.703E-01
   1   13    4     8     3    2.4372E+02 -8.4097E-01   2.4456E+02  0.000E+00  0.000E+00  0.000E+00  1.01276E+03  3.381E+00  4.903E+01  4.996E+00 -5.611E-02
   1   13    3     8     4    2.4456E+02 -2.2508E+00   2.4682E+02  0.000E+00  0.000E+00  0.000E+00  1.00651E+03  3.389E+00  4.915E+01  5.008E+00 -1.498E-01
   1   13    2     8     5    2.4682E+02 -1.0723E+00   2.4789E+02  0.000E+00  0.000E+00  0.000E+00  1.00027E+03  3.398E+00  4.927E+01  5.021E+00 -7.119E-02
   1   13    1     8     6    2.4789E+02 -1.1111E+00   2.4900E+02  0.000E+00  0.000E+00  0.000E+00  9.95279E+02  3.404E+00  4.935E+01  3.017E+00 -1.227E-01





UNSATURATED ZONE PACKAGE VOLUMETRIC BUDGET FOR  TIME STEP    30 STRESS PERIOD   15
  ------------------------------------------------------------------------------



     CUMULATIVE VOLUMES      L**3       RATES FOR THIS TIME STEP      L**3/T
     ------------------                 ------------------------

           IN:                                      IN:
           ---                                      ---
        INFILTRATION =   507118845.4669          INFILTRATION =           0.8475

          OUT:                                     OUT:
          ----                                     ----
              UZF ET =   434001082.3606                UZF ET =           0.7500
        UZF RECHARGE =    72021918.2224          UZF RECHARGE =           0.0001

            IN - OUT =     1095844.8839              IN - OUT =       9.7371E-02

          STORAGE:                                 STORAGE:
          --------                                 --------
      STORAGE CHANGE =     1095837.7325        STORAGE CHANGE =       9.7371E-02

 PERCENT DISCREPANCY IS DIFFERENCE BETWEEN IN-OUT MINUS CHANGE IN STORAGE
 DIVIDED BY THE AVERAGE OF IN AND OUT TIMES 100

 PERCENT DISCREPANCY =           0.00     PERCENT DISCREPANCY =           0.00






1
  VOLUMETRIC BUDGET FOR AGRICULTURAL FIELDS AT  END OF TIME STEP   30, STRESS PERIOD  15
  ------------------------------------------------------------------------------

     CUMULATIVE VOLUMES      L**3       RATES FOR THIS TIME STEP      L**3/T
     ------------------                 ------------------------

           IN:                                      IN:
           ---                                      ---
               AG WELLS  =   475840128.0000                 AG WELLS  =           0.0000
      DIVERSION SEGMENTS =           0.0000        DIVERSION SEGMENTS =           0.0000
           GW IRRIGATION =           0.0000             GW IRRIGATION =           0.0000
           SW IRRIGATION =           0.0000             SW IRRIGATION =           0.0000
        SYSTEM LOSSES GW =           0.0000          SYSTEM LOSSES GW =           0.0000
        SYSTEM LOSSES SW =           0.0000          SYSTEM LOSSES SW =           0.0000

                TOTAL IN =   475840128.0000                  TOTAL IN =           0.0000

          OUT:                                     OUT:
          ----                                     ----
               AG WELLS  =           0.0000                 AG WELLS  =           0.0000
      DIVERSION SEGMENTS =           0.0000        DIVERSION SEGMENTS =           0.0000
           GW IRRIGATION =   475840128.0000             GW IRRIGATION =           0.0000
           SW IRRIGATION =           0.0000             SW IRRIGATION =           0.0000
        SYSTEM LOSSES GW =           0.0000          SYSTEM LOSSES GW =           0.0000
        SYSTEM LOSSES SW =           0.0000          SYSTEM LOSSES SW =           0.0000

               TOTAL OUT =   475840128.0000                 TOTAL OUT =           0.0000

                IN - OUT =           0.0000                  IN - OUT =           0.0000

     PERCENT DISCREPANCY =           0.00         PERCENT DISCREPANCY =           0.00



1
  VOLUMETRIC BUDGET FOR ENTIRE MODEL AT END OF TIME STEP   30, STRESS PERIOD  15
  ------------------------------------------------------------------------------

     CUMULATIVE VOLUMES      L**3       RATES FOR THIS TIME STEP      L**3/T
     ------------------                 ------------------------

           IN:                                      IN:
           ---                                      ---
             STORAGE     =   625344384.0000               STORAGE     =           3.6366
       CONSTANT HEAD     =           0.0000         CONSTANT HEAD     =           0.0000
     HEAD DEP BOUNDS     =    10533752.0000       HEAD DEP BOUNDS     =           0.2853
      STREAM LEAKAGE     =   454680768.0000        STREAM LEAKAGE     =          14.2779
        UZF RECHARGE     =    72021952.0000          UZF RECHARGE     =       1.2874E-04
               GW ET     =           0.0000                 GW ET     =           0.0000
     SURFACE LEAKAGE     =           0.0000       SURFACE LEAKAGE     =           0.0000
           AG WELLS      =           0.0000             AG WELLS      =           0.0000

                TOTAL IN =  1162580992.0000                  TOTAL IN =          18.2000

          OUT:                                     OUT:
          ----                                     ----
             STORAGE     =   277331968.0000               STORAGE     =          12.6341
       CONSTANT HEAD     =           0.0000         CONSTANT HEAD     =           0.0000
     HEAD DEP BOUNDS     =    10850447.0000       HEAD DEP BOUNDS     =           0.2906
      STREAM LEAKAGE     =   384803520.0000        STREAM LEAKAGE     =           5.2752
        UZF RECHARGE     =           0.0000          UZF RECHARGE     =           0.0000
               GW ET     =    13750637.0000                 GW ET     =           0.0000
     SURFACE LEAKAGE     =           0.0000       SURFACE LEAKAGE     =           0.0000
           AG WELLS      =   475840128.0000             AG WELLS      =           0.0000

               TOTAL OUT =  1162576640.0000                 TOTAL OUT =          18.1999

                IN - OUT =        4352.0000                  IN - OUT =       3.4332E-05

     PERCENT DISCREPANCY =           0.00         PERCENT DISCREPANCY =           0.00






         TIME SUMMARY AT END OF TIME STEP   30 IN STRESS PERIOD   15
                    SECONDS     MINUTES      HOURS       DAYS        YEARS
                    -----------------------------------------------------------
   TIME STEP LENGTH  87667.      1461.1      24.352      1.0147     2.77799E-03
 STRESS PERIOD TIME 2.63000E+06  43833.      730.56      30.440     8.33397E-02
         TOTAL TIME 3.69063E+07 6.15106E+05  10252.      427.16      1.1695    
1
1
                            STRESS PERIOD NO.   16, LENGTH =   2630000.    
                            -----------------------------------------------

                              NUMBER OF TIME STEPS =    30

                               MULTIPLIER FOR DELT =     1.000

                            INITIAL TIME STEP SIZE =   87666.66    

 REUSING NON-PARAMETER GHB CELLS FROM LAST STRESS PERIOD

      2 GHB CELLS

 REUSING STREAM SEGMENT DATA FROM LAST STRESS PERIOD



            AREAL INFILTRATION RATE
 READING ON UNIT   19 WITH FORMAT: (FREE)              

            1           2           3           4           5           6           7           8           9          10
 ........................................................................................................................
   1   1.0000E-10  2.0000E-10   0.000       0.000       0.000       0.000       0.000       0.000       0.000       0.000    
   2   2.0000E-10  1.0000E-10  2.0000E-10   0.000       0.000      8.0000E-10  8.0000E-10  5.0000E-10   0.000       0.000    
   3    0.000      5.0000E-10  1.0000E-10  1.0000E-10  8.0000E-10  8.0000E-10  5.0000E-10  5.0000E-10   0.000       0.000    
   4   8.0000E-10  5.0000E-10  1.0000E-10  1.0000E-10  1.0000E-10  1.0000E-10  1.0000E-10  1.0000E-10  2.0000E-10   0.000    
   5   8.0000E-10  5.0000E-10  1.0000E-10  1.0000E-10  1.0000E-10  1.0000E-10  1.0000E-10  1.0000E-10  1.0000E-10  1.0000E-10
   6   8.0000E-10  5.0000E-10  5.0000E-10  2.0000E-10  2.0000E-10  1.0000E-10  1.0000E-10  1.0000E-10  1.0000E-10  5.0000E-10
   7   8.0000E-10  5.0000E-10  5.0000E-10  2.0000E-10  2.0000E-10  1.0000E-10  1.0000E-10  2.0000E-10  2.0000E-10   0.000    
   8    0.000      5.0000E-10  5.0000E-10  2.0000E-10  2.0000E-10  1.0000E-10  1.0000E-10  2.0000E-10  5.0000E-10   0.000    
   9    0.000      5.0000E-10  5.0000E-10  2.0000E-10  2.0000E-10  1.0000E-10  1.0000E-10  2.0000E-10  5.0000E-10   0.000    
  10    0.000      5.0000E-10  5.0000E-10  2.0000E-10  2.0000E-10  1.0000E-10  1.0000E-10  2.0000E-10  5.0000E-10  8.0000E-10
  11    0.000      1.0000E-10  1.0000E-10  1.0000E-10  1.0000E-10  1.0000E-10  1.0000E-10  2.0000E-10  5.0000E-10   0.000    
  12   1.0000E-10  1.0000E-10  1.0000E-10  1.0000E-10  1.0000E-10  1.0000E-10  1.0000E-10  1.0000E-10  2.0000E-10   0.000    
  13   1.0000E-10  1.0000E-10  2.0000E-10  2.0000E-10  2.0000E-10  2.0000E-10  2.0000E-10  1.0000E-10  1.0000E-10   0.000    
  14    0.000      2.0000E-10  5.0000E-10  5.0000E-10  5.0000E-10  5.0000E-10  5.0000E-10  2.0000E-10  1.0000E-10   0.000    
  15    0.000       0.000      8.0000E-10  8.0000E-10  8.0000E-10  8.0000E-10   0.000       0.000       0.000       0.000    

                  ET RATE =  5.000000E-10

 USING ET EXTINCTION DEPTH FROM PREVIOUS STRESS PERIOD. CURRENT PERIOD IS:      16

 USING EXTINCTION WATER CONTENT FROM PREVIOUS STRESS PERIOD. CURRENT PERIOD IS:      16

 USING AIR ENTRY PRESSURE FROM PREVIOUS STRESS PERIOD. CURRENT PERIOD IS:      16

 USING ROOT PRESSURE HEAD FROM PREVIOUS STRESS PERIOD. CURRENT PERIOD IS:      16

 USING ROOT ACTIVITY FROM PREVIOUS STRESS PERIOD. CURRENT PERIOD IS:      16

 PROCESSING AG STRESS PERIOD DATA

 READING AG STRESS PERIOD DATA

 READING IRRIGATION WELL

 END PROCESSING AG STRESS PERIOD DATA OPTIONS
 
 SOLVING FOR HEAD 
                                                   Max.-Head-Change                         Max.-Flux-Residual
  Residual-Control   Outer-Iter.   Inner-Iter.     Column Row Layer    Maximum-Head-Change  Column Row Layer    Maximum-Flux-Residual          L2-NORM 
          0                 1           2             4   13     1       0.2659667721E-01       4   13    1         0.1539789498E+01      0.3129568013E+01
          0                 2           2             4   13     1      -0.2558033287E-02       4   13    1        -0.1522740061E+00      0.3050919711E+00
          0                 3           2             4   13     1       0.1714672382E-03       4   13    1         0.1049486212E-01      0.2062687448E-01
          0                 4           1             4   13     1      -0.6633732692E-05       4   13    1        -0.4174925971E-03      0.7975934975E-03

    ------------------------------------------------
       NWT REQUIRED            4 OUTER ITERATIONS 
       AND A TOTAL OF          7 INNER ITERATIONS.
    ------------------------------------------------

 NO OUTPUT CONTROL FOR STRESS PERIOD   16   TIME STEP    1
 
 SOLVING FOR HEAD 
                                                   Max.-Head-Change                         Max.-Flux-Residual
  Residual-Control   Outer-Iter.   Inner-Iter.     Column Row Layer    Maximum-Head-Change  Column Row Layer    Maximum-Flux-Residual          L2-NORM 
          0                 1           2             2   13     1       0.2423924778E-01       4   13    1         0.1382593060E+01      0.2925512985E+01
          0                 2           2             4   13     1      -0.2298104089E-02       4   13    1        -0.1367269927E+00      0.2855912915E+00
          0                 3           2             4   13     1       0.1540553692E-03       4   13    1         0.9423980371E-02      0.1934111068E-01
          0                 4           1             4   13     1      -0.5975444931E-05       4   13    1        -0.3758794210E-03      0.7494870274E-03

    ------------------------------------------------
       NWT REQUIRED            4 OUTER ITERATIONS 
       AND A TOTAL OF          7 INNER ITERATIONS.
    ------------------------------------------------

 NO OUTPUT CONTROL FOR STRESS PERIOD   16   TIME STEP    2
 
 SOLVING FOR HEAD 
                                                   Max.-Head-Change                         Max.-Flux-Residual
  Residual-Control   Outer-Iter.   Inner-Iter.     Column Row Layer    Maximum-Head-Change  Column Row Layer    Maximum-Flux-Residual          L2-NORM 
          0                 1           2             2   13     1       0.2225982132E-01       2   13    1         0.1263678964E+01      0.2743781584E+01
          0                 2           2             4   13     1      -0.2065666752E-02       4   13    1        -0.1228307992E+00      0.2681380999E+00
          0                 3           2             4   13     1       0.1384530562E-03       4   13    1         0.8464846771E-02      0.1818977628E-01
          0                 4           1             4   13     1      -0.5350983962E-05       4   13    1        -0.3363959659E-03      0.7063600555E-03

    ------------------------------------------------
       NWT REQUIRED            4 OUTER ITERATIONS 
       AND A TOTAL OF          7 INNER ITERATIONS.
    ------------------------------------------------

 NO OUTPUT CONTROL FOR STRESS PERIOD   16   TIME STEP    3
 
 SOLVING FOR HEAD 
                                                   Max.-Head-Change                         Max.-Flux-Residual
  Residual-Control   Outer-Iter.   Inner-Iter.     Column Row Layer    Maximum-Head-Change  Column Row Layer    Maximum-Flux-Residual          L2-NORM 
          0                 1           2             2   13     1       0.2044248214E-01       2   13    1         0.1160404781E+01      0.2582092313E+01
          0                 2           2             2   13     1      -0.1892651318E-02       4   13    1        -0.1105488867E+00      0.2527310648E+00
          0                 3           2             4   13     1       0.1246484297E-03       4   13    1         0.7618260795E-02      0.1717750026E-01
          0                 4           1             4   13     1      -0.4824577976E-05       4   13    1        -0.3031837387E-03      0.6704357762E-03

    ------------------------------------------------
       NWT REQUIRED            4 OUTER ITERATIONS 
       AND A TOTAL OF          7 INNER ITERATIONS.
    ------------------------------------------------

 NO OUTPUT CONTROL FOR STRESS PERIOD   16   TIME STEP    4
 
 SOLVING FOR HEAD 
                                                   Max.-Head-Change                         Max.-Flux-Residual
  Residual-Control   Outer-Iter.   Inner-Iter.     Column Row Layer    Maximum-Head-Change  Column Row Layer    Maximum-Flux-Residual          L2-NORM 
          0                 1           2             2   13     1       0.1877413388E-01       2   13    1         0.1065598607E+01      0.2438417863E+01
          0                 2           2             2   13     1      -0.1739450834E-02       2   13    1        -0.1014877459E+00      0.2389329146E+00
          0                 3           1             4   13     1       0.1120202902E-03       4   13    1         0.6842176026E-02      0.1627137782E-01
          0                 4           1             4   13     1      -0.4347567026E-05       4   13    1        -0.2730500746E-03      0.6371176548E-03

    ------------------------------------------------
       NWT REQUIRED            4 OUTER ITERATIONS 
       AND A TOTAL OF          6 INNER ITERATIONS.
    ------------------------------------------------

 NO OUTPUT CONTROL FOR STRESS PERIOD   16   TIME STEP    5
 
 SOLVING FOR HEAD 
                                                   Max.-Head-Change                         Max.-Flux-Residual
  Residual-Control   Outer-Iter.   Inner-Iter.     Column Row Layer    Maximum-Head-Change  Column Row Layer    Maximum-Flux-Residual          L2-NORM 
          0                 1           2             2   13     1       0.1724267101E-01       2   13    1         0.9785728585E+00      0.2310882517E+01
          0                 2           2             2   13     1      -0.1598641301E-02       2   13    1        -0.9326197131E-01      0.2267489134E+00
          0                 3           1             2   13     1       0.1016204733E-03       4   13    1         0.6154842573E-02      0.1547074508E-01
          0                 4           1             4   13     1      -0.3898783638E-05       4   13    1        -0.2446859453E-03      0.6075780116E-03

    ------------------------------------------------
       NWT REQUIRED            4 OUTER ITERATIONS 
       AND A TOTAL OF          6 INNER ITERATIONS.
    ------------------------------------------------

 NO OUTPUT CONTROL FOR STRESS PERIOD   16   TIME STEP    6
 
 SOLVING FOR HEAD 
                                                   Max.-Head-Change                         Max.-Flux-Residual
  Residual-Control   Outer-Iter.   Inner-Iter.     Column Row Layer    Maximum-Head-Change  Column Row Layer    Maximum-Flux-Residual          L2-NORM 
          0                 1           2             2   13     1       0.1583694527E-01       2   13    1         0.8986943594E+00      0.2197818714E+01
          0                 2           2             2   13     1      -0.1469193467E-02       2   13    1        -0.8570016043E-01      0.2159528466E+00
          0                 3           1             2   13     1       0.9347147805E-04       2   13    1         0.5603634607E-02      0.1476304620E-01

    ------------------------------------------------
       NWT REQUIRED            3 OUTER ITERATIONS 
       AND A TOTAL OF          5 INNER ITERATIONS.
    ------------------------------------------------

 NO OUTPUT CONTROL FOR STRESS PERIOD   16   TIME STEP    7
 
 SOLVING FOR HEAD 
                                                   Max.-Head-Change                         Max.-Flux-Residual
  Residual-Control   Outer-Iter.   Inner-Iter.     Column Row Layer    Maximum-Head-Change  Column Row Layer    Maximum-Flux-Residual          L2-NORM 
          0                 1           2             2   13     1       0.1454648985E-01       2   13    1         0.8253684166E+00      0.2097627156E+01
          0                 2           2             2   13     1      -0.1350272551E-02       2   13    1        -0.7875360442E-01      0.2063912034E+00
          0                 3           1             2   13     1       0.8597461762E-04       2   13    1         0.5153531964E-02      0.1413551403E-01

    ------------------------------------------------
       NWT REQUIRED            3 OUTER ITERATIONS 
       AND A TOTAL OF          5 INNER ITERATIONS.
    ------------------------------------------------

 NO OUTPUT CONTROL FOR STRESS PERIOD   16   TIME STEP    8
 
 SOLVING FOR HEAD 
                                                   Max.-Head-Change                         Max.-Flux-Residual
  Residual-Control   Outer-Iter.   Inner-Iter.     Column Row Layer    Maximum-Head-Change  Column Row Layer    Maximum-Flux-Residual          L2-NORM 
          0                 1           2             2   13     1       0.1336211560E-01       2   13    1         0.7580729013E+00      0.2008898576E+01
          0                 2           2             2   13     1      -0.1240994801E-02       2   13    1        -0.7237061610E-01      0.1979272663E+00
          0                 3           1             2   13     1       0.7907509627E-04       2   13    1         0.4739304843E-02      0.1358110877E-01

    ------------------------------------------------
       NWT REQUIRED            3 OUTER ITERATIONS 
       AND A TOTAL OF          5 INNER ITERATIONS.
    ------------------------------------------------

 NO OUTPUT CONTROL FOR STRESS PERIOD   16   TIME STEP    9
 
 SOLVING FOR HEAD 
                                                   Max.-Head-Change                         Max.-Flux-Residual
  Residual-Control   Outer-Iter.   Inner-Iter.     Column Row Layer    Maximum-Head-Change  Column Row Layer    Maximum-Flux-Residual          L2-NORM 
          0                 1           2             2   13     1       0.1227525149E-01       2   13    1         0.6963207658E+00      0.1930332384E+01
          0                 2           2             2   13     1      -0.1140635100E-02       2   13    1        -0.6650886031E-01      0.1904348388E+00
          0                 3           1             2   13     1       0.7275676153E-04       2   13    1         0.4360012925E-02      0.1309075393E-01

    ------------------------------------------------
       NWT REQUIRED            3 OUTER ITERATIONS 
       AND A TOTAL OF          5 INNER ITERATIONS.
    ------------------------------------------------

 NO OUTPUT CONTROL FOR STRESS PERIOD   16   TIME STEP   10
 
 SOLVING FOR HEAD 
                                                   Max.-Head-Change                         Max.-Flux-Residual
  Residual-Control   Outer-Iter.   Inner-Iter.     Column Row Layer    Maximum-Head-Change  Column Row Layer    Maximum-Flux-Residual          L2-NORM 
          0                 1           2             2   13     1       0.1127786137E-01       2   13    1         0.6396552592E+00      0.1860739729E+01
          0                 2           2             2   13     1      -0.1048436905E-02       2   13    1        -0.6112410745E-01      0.1837983307E+00
          0                 3           1             2   13     1       0.6690257987E-04       2   13    1         0.4008567845E-02      0.1265593753E-01

    ------------------------------------------------
       NWT REQUIRED            3 OUTER ITERATIONS 
       AND A TOTAL OF          5 INNER ITERATIONS.
    ------------------------------------------------

 NO OUTPUT CONTROL FOR STRESS PERIOD   16   TIME STEP   11
 
 SOLVING FOR HEAD 
                                                   Max.-Head-Change                         Max.-Flux-Residual
  Residual-Control   Outer-Iter.   Inner-Iter.     Column Row Layer    Maximum-Head-Change  Column Row Layer    Maximum-Flux-Residual          L2-NORM 
          0                 1           2             2   13     1       0.1036259249E-01       2   13    1         0.5876584395E+00      0.1799064293E+01
          0                 2           2             2   13     1      -0.9637613815E-03       2   13    1        -0.5617901546E-01      0.1779168812E+00
          0                 3           1             2   13     1       0.6153759595E-04       2   13    1         0.3686526794E-02      0.1227073490E-01

    ------------------------------------------------
       NWT REQUIRED            3 OUTER ITERATIONS 
       AND A TOTAL OF          5 INNER ITERATIONS.
    ------------------------------------------------

 NO OUTPUT CONTROL FOR STRESS PERIOD   16   TIME STEP   12
 
 SOLVING FOR HEAD 
                                                   Max.-Head-Change                         Max.-Flux-Residual
  Residual-Control   Outer-Iter.   Inner-Iter.     Column Row Layer    Maximum-Head-Change  Column Row Layer    Maximum-Flux-Residual          L2-NORM 
          0                 1           2             2   13     1       0.9522666020E-02       2   13    1         0.5399448994E+00      0.1744341389E+01
          0                 2           2             2   13     1      -0.8859982992E-03       2   13    1        -0.5163831869E-01      0.1726847424E+00
          0                 3           1             4    7     1       0.5987293686E-04       2   13    1         0.3391592883E-02      0.1191710718E-01

    ------------------------------------------------
       NWT REQUIRED            3 OUTER ITERATIONS 
       AND A TOTAL OF          5 INNER ITERATIONS.
    ------------------------------------------------

 NO OUTPUT CONTROL FOR STRESS PERIOD   16   TIME STEP   13
 
 SOLVING FOR HEAD 
                                                   Max.-Head-Change                         Max.-Flux-Residual
  Residual-Control   Outer-Iter.   Inner-Iter.     Column Row Layer    Maximum-Head-Change  Column Row Layer    Maximum-Flux-Residual          L2-NORM 
          0                 1           2             4    7     1       0.8986467903E-02       2   13    1         0.4961617792E+00      0.1695723634E+01
          0                 2           2             4    7     1      -0.8736653850E-03       2   13    1        -0.4746694803E-01      0.1680547576E+00
          0                 3           1             4    7     1       0.5944850678E-04       4    7    1         0.3287556425E-02      0.1162401715E-01

    ------------------------------------------------
       NWT REQUIRED            3 OUTER ITERATIONS 
       AND A TOTAL OF          5 INNER ITERATIONS.
    ------------------------------------------------

 NO OUTPUT CONTROL FOR STRESS PERIOD   16   TIME STEP   14
 
 SOLVING FOR HEAD 
                                                   Max.-Head-Change                         Max.-Flux-Residual
  Residual-Control   Outer-Iter.   Inner-Iter.     Column Row Layer    Maximum-Head-Change  Column Row Layer    Maximum-Flux-Residual          L2-NORM 
          0                 1           2             4    7     1       0.8923160829E-02       4    7    1         0.4669281497E+00      0.1652454520E+01
          0                 2           2             4    7     1      -0.8675106340E-03       4    7    1        -0.4666746188E-01      0.1639222545E+00
          0                 3           1             4    7     1       0.5902970585E-04       4    7    1         0.3264249329E-02      0.1135254309E-01

    ------------------------------------------------
       NWT REQUIRED            3 OUTER ITERATIONS 
       AND A TOTAL OF          5 INNER ITERATIONS.
    ------------------------------------------------

 NO OUTPUT CONTROL FOR STRESS PERIOD   16   TIME STEP   15
 
 SOLVING FOR HEAD 
                                                   Max.-Head-Change                         Max.-Flux-Residual
  Residual-Control   Outer-Iter.   Inner-Iter.     Column Row Layer    Maximum-Head-Change  Column Row Layer    Maximum-Flux-Residual          L2-NORM 
          0                 1           2             4    7     1       0.8860674439E-02       4    7    1         0.4636383891E+00      0.1613841932E+01
          0                 2           2             4    7     1      -0.8614356716E-03       4    7    1        -0.4633866238E-01      0.1602304861E+00
          0                 3           1             4    7     1       0.5861633421E-04       4    7    1         0.3241250678E-02      0.1110999555E-01

    ------------------------------------------------
       NWT REQUIRED            3 OUTER ITERATIONS 
       AND A TOTAL OF          5 INNER ITERATIONS.
    ------------------------------------------------

 NO OUTPUT CONTROL FOR STRESS PERIOD   16   TIME STEP   16
 
 SOLVING FOR HEAD 
                                                   Max.-Head-Change                         Max.-Flux-Residual
  Residual-Control   Outer-Iter.   Inner-Iter.     Column Row Layer    Maximum-Head-Change  Column Row Layer    Maximum-Flux-Residual          L2-NORM 
          0                 1           2             4    7     1       0.8798989861E-02       4    7    1         0.4603911794E+00      0.1579312780E+01
          0                 2           2             4    7     1      -0.8554386627E-03       4    7    1        -0.4601411575E-01      0.1569257577E+00
          0                 3           1             4    7     1       0.5820826724E-04       4    7    1         0.3218549534E-02      0.1089252367E-01

    ------------------------------------------------
       NWT REQUIRED            3 OUTER ITERATIONS 
       AND A TOTAL OF          5 INNER ITERATIONS.
    ------------------------------------------------

 NO OUTPUT CONTROL FOR STRESS PERIOD   16   TIME STEP   17
 
 SOLVING FOR HEAD 
                                                   Max.-Head-Change                         Max.-Flux-Residual
  Residual-Control   Outer-Iter.   Inner-Iter.     Column Row Layer    Maximum-Head-Change  Column Row Layer    Maximum-Flux-Residual          L2-NORM 
          0                 1           2             4    7     1       0.8738081651E-02       4    7    1         0.4571855424E+00      0.1548323588E+01
          0                 2           2             4    7     1      -0.8495171333E-03       4    7    1        -0.4569372417E-01      0.1539549521E+00
          0                 3           1             4    7     1       0.5780533620E-04       4    7    1         0.3196139017E-02      0.1069572826E-01

    ------------------------------------------------
       NWT REQUIRED            3 OUTER ITERATIONS 
       AND A TOTAL OF          5 INNER ITERATIONS.
    ------------------------------------------------

 NO OUTPUT CONTROL FOR STRESS PERIOD   16   TIME STEP   18
 
 SOLVING FOR HEAD 
                                                   Max.-Head-Change                         Max.-Flux-Residual
  Residual-Control   Outer-Iter.   Inner-Iter.     Column Row Layer    Maximum-Head-Change  Column Row Layer    Maximum-Flux-Residual          L2-NORM 
          0                 1           2             4    7     1       0.8677932395E-02       4    7    1         0.4540201586E+00      0.1520440941E+01
          0                 2           2             4    7     1      -0.8436693897E-03       4    7    1        -0.4537735581E-01      0.1512788540E+00
          0                 3           1             4    7     1       0.5740742560E-04       4    7    1         0.3174009887E-02      0.1051903327E-01

    ------------------------------------------------
       NWT REQUIRED            3 OUTER ITERATIONS 
       AND A TOTAL OF          5 INNER ITERATIONS.
    ------------------------------------------------

 NO OUTPUT CONTROL FOR STRESS PERIOD   16   TIME STEP   19
 
 SOLVING FOR HEAD 
                                                   Max.-Head-Change                         Max.-Flux-Residual
  Residual-Control   Outer-Iter.   Inner-Iter.     Column Row Layer    Maximum-Head-Change  Column Row Layer    Maximum-Flux-Residual          L2-NORM 
          0                 1           2             4    7     1       0.8618655681E-02       4    7    1         0.4509014969E+00      0.1495245175E+01
          0                 2           2             4    7     1      -0.8379064775E-03       4    7    1        -0.4506565722E-01      0.1488562883E+00
          0                 3           1             4    7     1       0.5701528816E-04       4    7    1         0.3152207455E-02      0.1035870540E-01

    ------------------------------------------------
       NWT REQUIRED            3 OUTER ITERATIONS 
       AND A TOTAL OF          5 INNER ITERATIONS.
    ------------------------------------------------

 NO OUTPUT CONTROL FOR STRESS PERIOD   16   TIME STEP   20
 
 SOLVING FOR HEAD 
                                                   Max.-Head-Change                         Max.-Flux-Residual
  Residual-Control   Outer-Iter.   Inner-Iter.     Column Row Layer    Maximum-Head-Change  Column Row Layer    Maximum-Flux-Residual          L2-NORM 
          0                 1           2             4    7     1       0.8559952922E-02       4    7    1         0.4478133317E+00      0.1472386486E+01
          0                 2           2             4    7     1      -0.8321993648E-03       4    7    1        -0.4475700667E-01      0.1466547294E+00
          0                 3           1             4    7     1       0.5662694685E-04       4    7    1         0.3130618169E-02      0.1021212736E-01

    ------------------------------------------------
       NWT REQUIRED            3 OUTER ITERATIONS 
       AND A TOTAL OF          5 INNER ITERATIONS.
    ------------------------------------------------

 NO OUTPUT CONTROL FOR STRESS PERIOD   16   TIME STEP   21
 
 SOLVING FOR HEAD 
                                                   Max.-Head-Change                         Max.-Flux-Residual
  Residual-Control   Outer-Iter.   Inner-Iter.     Column Row Layer    Maximum-Head-Change  Column Row Layer    Maximum-Flux-Residual          L2-NORM 
          0                 1           2             4    7     1       0.8502088077E-02       4    7    1         0.4447696686E+00      0.1451582931E+01
          0                 2           2             4    7     1      -0.8265737155E-03       4    7    1        -0.4445280397E-01      0.1446476286E+00
          0                 3           1             4    7     1       0.5624414913E-04       4    7    1         0.3109340030E-02      0.1007832893E-01

    ------------------------------------------------
       NWT REQUIRED            3 OUTER ITERATIONS 
       AND A TOTAL OF          5 INNER ITERATIONS.
    ------------------------------------------------

 NO OUTPUT CONTROL FOR STRESS PERIOD   16   TIME STEP   22
 
 SOLVING FOR HEAD 
                                                   Max.-Head-Change                         Max.-Flux-Residual
  Residual-Control   Outer-Iter.   Inner-Iter.     Column Row Layer    Maximum-Head-Change  Column Row Layer    Maximum-Flux-Residual          L2-NORM 
          0                 1           2             4    7     1       0.8444764267E-02       4    7    1         0.4417547061E+00      0.1432558710E+01
          0                 2           2             4    7     1      -0.8210006666E-03       4    7    1        -0.4415146983E-01      0.1428079530E+00
          0                 3           1             4    7     1       0.5586493062E-04       4    7    1         0.3088262546E-02      0.9955206093E-02

    ------------------------------------------------
       NWT REQUIRED            3 OUTER ITERATIONS 
       AND A TOTAL OF          5 INNER ITERATIONS.
    ------------------------------------------------

 NO OUTPUT CONTROL FOR STRESS PERIOD   16   TIME STEP   23
 
 SOLVING FOR HEAD 
                                                   Max.-Head-Change                         Max.-Flux-Residual
  Residual-Control   Outer-Iter.   Inner-Iter.     Column Row Layer    Maximum-Head-Change  Column Row Layer    Maximum-Flux-Residual          L2-NORM 
          0                 1           2             4    7     1       0.8388242242E-02       4    7    1         0.4387825394E+00      0.1415095014E+01
          0                 2           2             4    7     1      -0.8155055682E-03       4    7    1        -0.4385441303E-01      0.1411162399E+00
          0                 3           1             4    7     1       0.5549101597E-04       4    7    1         0.3067484229E-02      0.9841917969E-02

    ------------------------------------------------
       NWT REQUIRED            3 OUTER ITERATIONS 
       AND A TOTAL OF          5 INNER ITERATIONS.
    ------------------------------------------------

 NO OUTPUT CONTROL FOR STRESS PERIOD   16   TIME STEP   24
 
 SOLVING FOR HEAD 
                                                   Max.-Head-Change                         Max.-Flux-Residual
  Residual-Control   Outer-Iter.   Inner-Iter.     Column Row Layer    Maximum-Head-Change  Column Row Layer    Maximum-Flux-Residual          L2-NORM 
          0                 1           2             4    7     1       0.8332362135E-02       4    7    1         0.4358445718E+00      0.1398986096E+01
          0                 2           2             4    7     1      -0.8100728780E-03       4    7    1        -0.4356077433E-01      0.1395738050E+00
          0                 3           1             4    7     1       0.5512134805E-04       4    7    1         0.3046945011E-02      0.9738179308E-02

    ------------------------------------------------
       NWT REQUIRED            3 OUTER ITERATIONS 
       AND A TOTAL OF          5 INNER ITERATIONS.
    ------------------------------------------------

 NO OUTPUT CONTROL FOR STRESS PERIOD   16   TIME STEP   25
 
 SOLVING FOR HEAD 
                                                   Max.-Head-Change                         Max.-Flux-Residual
  Residual-Control   Outer-Iter.   Inner-Iter.     Column Row Layer    Maximum-Head-Change  Column Row Layer    Maximum-Flux-Residual          L2-NORM 
          0                 1           2             4    7     1       0.8277110589E-02       4    7    1         0.4329398865E+00      0.1384057579E+01
          0                 2           2             4    7     1      -0.8047012972E-03       4    7    1        -0.4327046208E-01      0.1381007758E+00
          0                 3           1             4    7     1       0.5475583897E-04       4    7    1         0.3026638491E-02      0.9638828732E-02

    ------------------------------------------------
       NWT REQUIRED            3 OUTER ITERATIONS 
       AND A TOTAL OF          5 INNER ITERATIONS.
    ------------------------------------------------

 NO OUTPUT CONTROL FOR STRESS PERIOD   16   TIME STEP   26
 
 SOLVING FOR HEAD 
                                                   Max.-Head-Change                         Max.-Flux-Residual
  Residual-Control   Outer-Iter.   Inner-Iter.     Column Row Layer    Maximum-Head-Change  Column Row Layer    Maximum-Flux-Residual          L2-NORM 
          0                 1           2             4    7     1       0.8222608292E-02       4    7    1         0.4300751636E+00      0.1370141774E+01
          0                 2           2             4    7     1      -0.7994025589E-03       4    7    1        -0.4298414397E-01      0.1367443509E+00
          0                 3           1             4    7     1       0.5439528581E-04       4    7    1         0.3006611324E-02      0.9547293707E-02

    ------------------------------------------------
       NWT REQUIRED            3 OUTER ITERATIONS 
       AND A TOTAL OF          5 INNER ITERATIONS.
    ------------------------------------------------

 NO OUTPUT CONTROL FOR STRESS PERIOD   16   TIME STEP   27
 
 SOLVING FOR HEAD 
                                                   Max.-Head-Change                         Max.-Flux-Residual
  Residual-Control   Outer-Iter.   Inner-Iter.     Column Row Layer    Maximum-Head-Change  Column Row Layer    Maximum-Flux-Residual          L2-NORM 
          0                 1           2             4    7     1       0.8168561254E-02       4    7    1         0.4272345428E+00      0.1357143735E+01
          0                 2           2             4    7     1      -0.7941480822E-03       4    7    1        -0.4270023480E-01      0.1354752949E+00
          0                 3           1             4    7     1       0.5403774469E-04       4    7    1         0.2986752674E-02      0.9461326838E-02

    ------------------------------------------------
       NWT REQUIRED            3 OUTER ITERATIONS 
       AND A TOTAL OF          5 INNER ITERATIONS.
    ------------------------------------------------

 NO OUTPUT CONTROL FOR STRESS PERIOD   16   TIME STEP   28
 
 SOLVING FOR HEAD 
                                                   Max.-Head-Change                         Max.-Flux-Residual
  Residual-Control   Outer-Iter.   Inner-Iter.     Column Row Layer    Maximum-Head-Change  Column Row Layer    Maximum-Flux-Residual          L2-NORM 
          0                 1           2             4    7     1       0.8115237250E-02       4    7    1         0.4244322718E+00      0.1344972783E+01
          0                 2           2             4    7     1      -0.7889638995E-03       4    7    1        -0.4242015861E-01      0.1342841841E+00
          0                 3           1             4    7     1       0.5368498649E-04       4    7    1         0.2967162121E-02      0.9380075996E-02

    ------------------------------------------------
       NWT REQUIRED            3 OUTER ITERATIONS 
       AND A TOTAL OF          5 INNER ITERATIONS.
    ------------------------------------------------

 NO OUTPUT CONTROL FOR STRESS PERIOD   16   TIME STEP   29
 
 SOLVING FOR HEAD 
                                                   Max.-Head-Change                         Max.-Flux-Residual
  Residual-Control   Outer-Iter.   Inner-Iter.     Column Row Layer    Maximum-Head-Change  Column Row Layer    Maximum-Flux-Residual          L2-NORM 
          0                 1           2             4    7     1       0.8062438594E-02       4    7    1         0.4216601161E+00      0.1289569482E+01
          0                 2           2             4    7     1      -0.7838307943E-03       4    7    1        -0.4214309247E-01      0.1288996691E+00
          0                 3           1             4    7     1       0.5333570455E-04       4    7    1         0.2947782128E-02      0.9017305393E-02

    ------------------------------------------------
       NWT REQUIRED            3 OUTER ITERATIONS 
       AND A TOTAL OF          5 INNER ITERATIONS.
    ------------------------------------------------

 NO OUTPUT CONTROL FOR STRESS PERIOD   16   TIME STEP   30



 STREAM LISTING     PERIOD     16   STEP       30

 LAYER ROW COL. STREAM  RCH.  FLOW INTO     FLOW TO   FLOW OUT OF   OVRLND.     DIRECT     STREAM       STREAM     STREAM     STREAM   STREAMBED  STREAMBED
                SEG.NO.  NO.  STRM. RCH.    AQUIFER    STRM. RCH.    RUNOFF     PRECIP       ET          HEAD       DEPTH      WIDTH   CONDCTNC.   GRADIENT

   1    1    1     1     1    8.8455E+01  4.5169E-01   8.8003E+01  0.000E+00  0.000E+00  0.000E+00  1.09480E+03  1.756E+00  2.111E+01  9.498E-02  1.585E+00
   1    2    2     1     2    8.8003E+01  7.0076E-01   8.7302E+01  0.000E+00  0.000E+00  0.000E+00  1.08981E+03  1.753E+00  2.106E+01  1.474E-01  1.584E+00
   1    3    3     1     3    8.7302E+01  5.9885E-01   8.6704E+01  0.000E+00  0.000E+00  0.000E+00  1.08417E+03  1.751E+00  2.101E+01  1.260E-01  1.584E+00
   1    3    4     1     4    8.6704E+01  5.5245E-01   8.6151E+01  0.000E+00  0.000E+00  0.000E+00  1.07916E+03  1.749E+00  2.096E+01  1.163E-01  1.583E+00
   1    4    5     2     1    8.4151E+01  4.2881E-01   8.3722E+01  0.000E+00  0.000E+00  0.000E+00  1.07443E+03  2.498E+00  1.200E+01  7.800E-02  1.833E+00
   1    5    6     2     2    8.3722E+01  3.2945E-01   8.3393E+01  0.000E+00  0.000E+00  0.000E+00  1.06900E+03  2.491E+00  1.200E+01  6.000E-02  1.830E+00
   1    6    6     2     3    8.3393E+01  3.2909E-01   8.3064E+01  0.000E+00  0.000E+00  0.000E+00  1.06428E+03  2.485E+00  1.200E+01  6.000E-02  1.828E+00
   1    7    6     2     4    8.3064E+01  3.2874E-01   8.2735E+01  0.000E+00  0.000E+00  0.000E+00  1.05955E+03  2.479E+00  1.200E+01  6.000E-02  1.826E+00
   1    8    6     2     5    8.2735E+01  3.2839E-01   8.2407E+01  0.000E+00  0.000E+00  0.000E+00  1.05483E+03  2.473E+00  1.200E+01  6.000E-02  1.824E+00
   1    3    5     3     1    2.0000E+00  2.8252E-01   1.7175E+00  0.000E+00  0.000E+00  0.000E+00  1.07555E+03  1.909E+00  9.636E+00  7.227E-02  1.955E+00
   1    3    6     3     2    1.7175E+00  2.4905E-01   1.4684E+00  0.000E+00  0.000E+00  0.000E+00  1.07264E+03  1.727E+00  8.909E+00  6.682E-02  1.864E+00
   1    3    7     3     3    1.4684E+00  1.9718E-01   1.2712E+00  0.000E+00  0.000E+00  0.000E+00  1.06987E+03  1.555E+00  8.218E+00  5.547E-02  1.777E+00
   1    4    8     3     4    1.2712E+00  2.2567E-01   1.0456E+00  0.000E+00  0.000E+00  0.000E+00  1.06682E+03  1.364E+00  7.455E+00  6.709E-02  1.682E+00
   1    5    8     3     5    1.0456E+00  1.5790E-01   8.8768E-01  0.000E+00  0.000E+00  0.000E+00  1.06362E+03  1.164E+00  6.655E+00  4.991E-02  1.582E+00
   1    6    8     3     6    8.8768E-01  5.5980E-02   8.3170E-01  0.000E+00  0.000E+00  0.000E+00  1.06158E+03  1.036E+00  6.145E+00  1.844E-02  1.518E+00
   1    5   10     4     1    1.0000E+01  9.0919E-02   9.9091E+00  0.000E+00  0.000E+00  0.000E+00  1.07836E+03  6.368E-01  1.000E+01  2.500E-02  1.212E+00
   1    5    9     4     2    9.9091E+00  1.8158E-01   9.7275E+00  0.000E+00  0.000E+00  0.000E+00  1.07154E+03  6.315E-01  1.000E+01  5.000E-02  1.211E+00
   1    6    8     4     3    9.7275E+00  1.2689E-01   9.6006E+00  0.000E+00  0.000E+00  0.000E+00  1.06381E+03  6.256E-01  1.000E+01  3.500E-02  1.209E+00
   1    6    8     5     1    1.0432E+01  2.2686E-01   1.0205E+01  0.000E+00  0.000E+00  0.000E+00  1.05868E+03  6.790E-01  1.542E+01  6.166E-02  1.226E+00
   1    7    7     5     2    1.0205E+01  2.7894E-01   9.9265E+00  0.000E+00  0.000E+00  0.000E+00  1.05417E+03  6.732E-01  1.519E+01  7.594E-02  1.224E+00
   1    8    7     5     3    9.9265E+00  1.9221E-01   9.7343E+00  0.000E+00  0.000E+00  0.000E+00  1.04992E+03  6.676E-01  1.497E+01  5.241E-02  1.223E+00
   1    8    6     5     4    9.7343E+00  1.3577E-01   9.5985E+00  0.000E+00  0.000E+00  0.000E+00  1.04691E+03  6.637E-01  1.482E+01  3.706E-02  1.221E+00
   1    9    6     6     1    9.2005E+01  3.3993E-01   9.1665E+01  0.000E+00  0.000E+00  0.000E+00  1.04539E+03  2.665E+00  1.200E+01  6.000E-02  1.888E+00
   1   10    7     6     2    9.1665E+01  3.3957E-01   9.1326E+01  0.000E+00  0.000E+00  0.000E+00  1.04084E+03  2.660E+00  1.200E+01  6.000E-02  1.887E+00
   1   11    7     6     3    9.1326E+01  3.3922E-01   9.0986E+01  0.000E+00  0.000E+00  0.000E+00  1.03629E+03  2.654E+00  1.200E+01  6.000E-02  1.885E+00
   1   12    7     6     4    9.0986E+01  3.3886E-01   9.0648E+01  0.000E+00  0.000E+00  0.000E+00  1.03174E+03  2.648E+00  1.200E+01  6.000E-02  1.883E+00
   1   13    7     6     5    9.0648E+01  3.4640E-02   9.0613E+01  0.000E+00  0.000E+00  0.000E+00  1.02855E+03  2.644E+00  1.200E+01  2.400E-02  4.811E-01
   1   14    9     7     1    1.5000E+02  1.3300E+00   1.4867E+02  0.000E+00  0.000E+00  0.000E+00  1.03987E+03  2.288E+00  5.529E+01  5.593E-01  7.927E-01
   1   13    8     7     2    1.4867E+02  1.8192E+00   1.4685E+02  0.000E+00  0.000E+00  0.000E+00  1.03478E+03  2.279E+00  5.526E+01  6.148E-01  9.863E-01
   1   13    7     7     3    1.4685E+02  1.4407E+00   1.4541E+02  0.000E+00  0.000E+00  0.000E+00  1.02969E+03  2.271E+00  5.522E+01  5.585E-01  8.599E-01
   1   13    6     8     1    2.3602E+02  1.1662E+00   2.3486E+02  0.000E+00  0.000E+00  0.000E+00  1.02521E+03  3.336E+00  4.837E+01  4.929E-01  7.887E-01
   1   13    5     8     2    2.3486E+02  3.2589E-01   2.3453E+02  0.000E+00  0.000E+00  0.000E+00  1.01896E+03  3.332E+00  4.831E+01  4.923E-01  2.207E-01
   1   13    4     8     3    2.3453E+02 -2.2013E+00   2.3673E+02  0.000E+00  0.000E+00  0.000E+00  1.01271E+03  3.337E+00  4.838E+01  4.930E+00 -1.488E-01
   1   13    3     8     4    2.3673E+02 -3.5753E+00   2.4031E+02  0.000E+00  0.000E+00  0.000E+00  1.00648E+03  3.352E+00  4.860E+01  4.953E+00 -2.406E-01
   1   13    2     8     5    2.4031E+02 -2.5564E+00   2.4286E+02  0.000E+00  0.000E+00  0.000E+00  1.00024E+03  3.368E+00  4.884E+01  4.977E+00 -1.712E-01
   1   13    1     8     6    2.4286E+02 -1.8856E+00   2.4475E+02  0.000E+00  0.000E+00  0.000E+00  9.95255E+02  3.380E+00  4.900E+01  2.996E+00 -2.098E-01





UNSATURATED ZONE PACKAGE VOLUMETRIC BUDGET FOR  TIME STEP    30 STRESS PERIOD   16
  ------------------------------------------------------------------------------



     CUMULATIVE VOLUMES      L**3       RATES FOR THIS TIME STEP      L**3/T
     ------------------                 ------------------------

           IN:                                      IN:
           ---                                      ---
        INFILTRATION =   509347770.3397          INFILTRATION =           0.8475

          OUT:                                     OUT:
          ----                                     ----
              UZF ET =   435973582.2372                UZF ET =           0.7500
        UZF RECHARGE =    72022227.3421          UZF RECHARGE =           0.0001

            IN - OUT =     1351960.7604              IN - OUT =       9.7392E-02

          STORAGE:                                 STORAGE:
          --------                                 --------
      STORAGE CHANGE =     1351953.6294        STORAGE CHANGE =       9.7392E-02

 PERCENT DISCREPANCY IS DIFFERENCE BETWEEN IN-OUT MINUS CHANGE IN STORAGE
 DIVIDED BY THE AVERAGE OF IN AND OUT TIMES 100

 PERCENT DISCREPANCY =           0.00     PERCENT DISCREPANCY =           0.00






1
  VOLUMETRIC BUDGET FOR AGRICULTURAL FIELDS AT  END OF TIME STEP   30, STRESS PERIOD  16
  ------------------------------------------------------------------------------

     CUMULATIVE VOLUMES      L**3       RATES FOR THIS TIME STEP      L**3/T
     ------------------                 ------------------------

           IN:                                      IN:
           ---                                      ---
               AG WELLS  =   475840128.0000                 AG WELLS  =           0.0000
      DIVERSION SEGMENTS =           0.0000        DIVERSION SEGMENTS =           0.0000
           GW IRRIGATION =           0.0000             GW IRRIGATION =           0.0000
           SW IRRIGATION =           0.0000             SW IRRIGATION =           0.0000
        SYSTEM LOSSES GW =           0.0000          SYSTEM LOSSES GW =           0.0000
        SYSTEM LOSSES SW =           0.0000          SYSTEM LOSSES SW =           0.0000

                TOTAL IN =   475840128.0000                  TOTAL IN =           0.0000

          OUT:                                     OUT:
          ----                                     ----
               AG WELLS  =           0.0000                 AG WELLS  =           0.0000
      DIVERSION SEGMENTS =           0.0000        DIVERSION SEGMENTS =           0.0000
           GW IRRIGATION =   475840128.0000             GW IRRIGATION =           0.0000
           SW IRRIGATION =           0.0000             SW IRRIGATION =           0.0000
        SYSTEM LOSSES GW =           0.0000          SYSTEM LOSSES GW =           0.0000
        SYSTEM LOSSES SW =           0.0000          SYSTEM LOSSES SW =           0.0000

               TOTAL OUT =   475840128.0000                 TOTAL OUT =           0.0000

                IN - OUT =           0.0000                  IN - OUT =           0.0000

     PERCENT DISCREPANCY =           0.00         PERCENT DISCREPANCY =           0.00



1
  VOLUMETRIC BUDGET FOR ENTIRE MODEL AT END OF TIME STEP   30, STRESS PERIOD  16
  ------------------------------------------------------------------------------

     CUMULATIVE VOLUMES      L**3       RATES FOR THIS TIME STEP      L**3/T
     ------------------                 ------------------------

           IN:                                      IN:
           ---                                      ---
             STORAGE     =   632978496.0000               STORAGE     =           2.7179
       CONSTANT HEAD     =           0.0000         CONSTANT HEAD     =           0.0000
     HEAD DEP BOUNDS     =    11284224.0000       HEAD DEP BOUNDS     =           0.2854
      STREAM LEAKAGE     =   492072672.0000        STREAM LEAKAGE     =          13.9239
        UZF RECHARGE     =    72022192.0000          UZF RECHARGE     =       1.0763E-04
               GW ET     =           0.0000                 GW ET     =           0.0000
     SURFACE LEAKAGE     =           0.0000       SURFACE LEAKAGE     =           0.0000
           AG WELLS      =           0.0000             AG WELLS      =           0.0000

                TOTAL IN =  1208357504.0000                  TOTAL IN =          16.9272

          OUT:                                     OUT:
          ----                                     ----
             STORAGE     =   300425440.0000               STORAGE     =           6.4048
       CONSTANT HEAD     =           0.0000         CONSTANT HEAD     =           0.0000
     HEAD DEP BOUNDS     =    11629873.0000       HEAD DEP BOUNDS     =           0.2996
      STREAM LEAKAGE     =   406701152.0000        STREAM LEAKAGE     =          10.2185
        UZF RECHARGE     =           0.0000          UZF RECHARGE     =           0.0000
               GW ET     =    13759973.0000                 GW ET     =       5.3549E-03
     SURFACE LEAKAGE     =           0.0000       SURFACE LEAKAGE     =           0.0000
           AG WELLS      =   475840128.0000             AG WELLS      =           0.0000

               TOTAL OUT =  1208356608.0000                 TOTAL OUT =          16.9283

                IN - OUT =         896.0000                  IN - OUT =      -1.0529E-03

     PERCENT DISCREPANCY =           0.00         PERCENT DISCREPANCY =          -0.01






         TIME SUMMARY AT END OF TIME STEP   30 IN STRESS PERIOD   16
                    SECONDS     MINUTES      HOURS       DAYS        YEARS
                    -----------------------------------------------------------
   TIME STEP LENGTH  87667.      1461.1      24.352      1.0147     2.77799E-03
 STRESS PERIOD TIME 2.63000E+06  43833.      730.56      30.440     8.33397E-02
         TOTAL TIME 3.95364E+07 6.58940E+05  10982.      457.60      1.2528    
1
1
                            STRESS PERIOD NO.   17, LENGTH =   2630000.    
                            -----------------------------------------------

                              NUMBER OF TIME STEPS =    30

                               MULTIPLIER FOR DELT =     1.000

                            INITIAL TIME STEP SIZE =   87666.66    

 REUSING NON-PARAMETER GHB CELLS FROM LAST STRESS PERIOD

      2 GHB CELLS

 REUSING STREAM SEGMENT DATA FROM LAST STRESS PERIOD



            AREAL INFILTRATION RATE
 READING ON UNIT   19 WITH FORMAT: (FREE)              

            1           2           3           4           5           6           7           8           9          10
 ........................................................................................................................
   1   1.0000E-10  2.0000E-10   0.000       0.000       0.000       0.000       0.000       0.000       0.000       0.000    
   2   2.0000E-10  1.0000E-10  2.0000E-10   0.000       0.000      8.0000E-10  8.0000E-10  5.0000E-10   0.000       0.000    
   3    0.000      5.0000E-10  1.0000E-10  1.0000E-10  8.0000E-10  8.0000E-10  5.0000E-10  5.0000E-10   0.000       0.000    
   4   8.0000E-10  5.0000E-10  1.0000E-10  1.0000E-10  1.0000E-10  1.0000E-10  1.0000E-10  1.0000E-10  2.0000E-10   0.000    
   5   8.0000E-10  5.0000E-10  1.0000E-10  1.0000E-10  1.0000E-10  1.0000E-10  1.0000E-10  1.0000E-10  1.0000E-10  1.0000E-10
   6   8.0000E-10  5.0000E-10  5.0000E-10  2.0000E-10  2.0000E-10  1.0000E-10  1.0000E-10  1.0000E-10  1.0000E-10  5.0000E-10
   7   8.0000E-10  5.0000E-10  5.0000E-10  2.0000E-10  2.0000E-10  1.0000E-10  1.0000E-10  2.0000E-10  2.0000E-10   0.000    
   8    0.000      5.0000E-10  5.0000E-10  2.0000E-10  2.0000E-10  1.0000E-10  1.0000E-10  2.0000E-10  5.0000E-10   0.000    
   9    0.000      5.0000E-10  5.0000E-10  2.0000E-10  2.0000E-10  1.0000E-10  1.0000E-10  2.0000E-10  5.0000E-10   0.000    
  10    0.000      5.0000E-10  5.0000E-10  2.0000E-10  2.0000E-10  1.0000E-10  1.0000E-10  2.0000E-10  5.0000E-10  8.0000E-10
  11    0.000      1.0000E-10  1.0000E-10  1.0000E-10  1.0000E-10  1.0000E-10  1.0000E-10  2.0000E-10  5.0000E-10   0.000    
  12   1.0000E-10  1.0000E-10  1.0000E-10  1.0000E-10  1.0000E-10  1.0000E-10  1.0000E-10  1.0000E-10  2.0000E-10   0.000    
  13   1.0000E-10  1.0000E-10  2.0000E-10  2.0000E-10  2.0000E-10  2.0000E-10  2.0000E-10  1.0000E-10  1.0000E-10   0.000    
  14    0.000      2.0000E-10  5.0000E-10  5.0000E-10  5.0000E-10  5.0000E-10  5.0000E-10  2.0000E-10  1.0000E-10   0.000    
  15    0.000       0.000      8.0000E-10  8.0000E-10  8.0000E-10  8.0000E-10   0.000       0.000       0.000       0.000    

                  ET RATE =  2.500000E-08

 USING ET EXTINCTION DEPTH FROM PREVIOUS STRESS PERIOD. CURRENT PERIOD IS:      17

 USING EXTINCTION WATER CONTENT FROM PREVIOUS STRESS PERIOD. CURRENT PERIOD IS:      17

 USING AIR ENTRY PRESSURE FROM PREVIOUS STRESS PERIOD. CURRENT PERIOD IS:      17

 USING ROOT PRESSURE HEAD FROM PREVIOUS STRESS PERIOD. CURRENT PERIOD IS:      17

 USING ROOT ACTIVITY FROM PREVIOUS STRESS PERIOD. CURRENT PERIOD IS:      17

 PROCESSING AG STRESS PERIOD DATA

 READING AG STRESS PERIOD DATA

 READING IRRIGATION WELL

 END PROCESSING AG STRESS PERIOD DATA OPTIONS
 
 SOLVING FOR HEAD 
                                                   Max.-Head-Change                         Max.-Flux-Residual
  Residual-Control   Outer-Iter.   Inner-Iter.     Column Row Layer    Maximum-Head-Change  Column Row Layer    Maximum-Flux-Residual          L2-NORM 
          0                 1           2             4   13     1      -0.9932937514E-02       4   13    1        -0.5865569047E+00      0.1395359890E+01
          0                 2           2             4   13     1       0.9574178613E-03       4   13    1         0.5813231649E-01      0.1381475884E+00
          0                 3           1             4   13     1      -0.6436767364E-04       4   13    1        -0.4018706684E-02      0.9536156450E-02

    ------------------------------------------------
       NWT REQUIRED            3 OUTER ITERATIONS 
       AND A TOTAL OF          5 INNER ITERATIONS.
    ------------------------------------------------

 NO OUTPUT CONTROL FOR STRESS PERIOD   17   TIME STEP    1
 
 SOLVING FOR HEAD 
                                                   Max.-Head-Change                         Max.-Flux-Residual
  Residual-Control   Outer-Iter.   Inner-Iter.     Column Row Layer    Maximum-Head-Change  Column Row Layer    Maximum-Flux-Residual          L2-NORM 
          0                 1           2             3   13     1      -0.8782136576E-02       4   13    1        -0.5162287643E+00      0.1311156220E+01
          0                 2           2             4   13     1       0.8427735046E-03       4   13    1         0.5116120270E-01      0.1299228762E+00
          0                 3           1             4   13     1      -0.5667134806E-04       4   13    1        -0.3537335277E-02      0.8986226706E-02

    ------------------------------------------------
       NWT REQUIRED            3 OUTER ITERATIONS 
       AND A TOTAL OF          5 INNER ITERATIONS.
    ------------------------------------------------

 NO OUTPUT CONTROL FOR STRESS PERIOD   17   TIME STEP    2
 
 SOLVING FOR HEAD 
                                                   Max.-Head-Change                         Max.-Flux-Residual
  Residual-Control   Outer-Iter.   Inner-Iter.     Column Row Layer    Maximum-Head-Change  Column Row Layer    Maximum-Flux-Residual          L2-NORM 
          0                 1           2             3   13     1      -0.7831085557E-02       3   13    1        -0.4569457007E+00      0.1237241615E+01
          0                 2           2             3   13     1       0.7431069391E-03       4   13    1         0.4503344383E-01      0.1227027005E+00
          0                 3           1             4   13     1      -0.4987930738E-04       4   13    1        -0.3112739185E-02      0.8496375054E-02

    ------------------------------------------------
       NWT REQUIRED            3 OUTER ITERATIONS 
       AND A TOTAL OF          5 INNER ITERATIONS.
    ------------------------------------------------

 NO OUTPUT CONTROL FOR STRESS PERIOD   17   TIME STEP    3
 
 SOLVING FOR HEAD 
                                                   Max.-Head-Change                         Max.-Flux-Residual
  Residual-Control   Outer-Iter.   Inner-Iter.     Column Row Layer    Maximum-Head-Change  Column Row Layer    Maximum-Flux-Residual          L2-NORM 
          0                 1           2             3   13     1      -0.6983283475E-02       3   13    1        -0.4074518961E+00      0.1172220517E+01
          0                 2           2             3   13     1       0.6627368056E-03       3   13    1         0.3975614676E-01      0.1163505491E+00
          0                 3           1             4   13     1      -0.4392518014E-04       4   13    1        -0.2740610544E-02      0.8065303176E-02

    ------------------------------------------------
       NWT REQUIRED            3 OUTER ITERATIONS 
       AND A TOTAL OF          5 INNER ITERATIONS.
    ------------------------------------------------

 NO OUTPUT CONTROL FOR STRESS PERIOD   17   TIME STEP    4
 
 SOLVING FOR HEAD 
                                                   Max.-Head-Change                         Max.-Flux-Residual
  Residual-Control   Outer-Iter.   Inner-Iter.     Column Row Layer    Maximum-Head-Change  Column Row Layer    Maximum-Flux-Residual          L2-NORM 
          0                 1           2             3    7     1       0.6314435541E-02       3   13    1        -0.3633355472E+00      0.1114895028E+01
          0                 2           2             3    7     1      -0.6142219915E-03       3   13    1         0.3545642147E-01      0.1107476226E+00
          0                 3           1             3    7     1       0.4182630677E-04       4   13    1        -0.2413146505E-02      0.7684857444E-02

    ------------------------------------------------
       NWT REQUIRED            3 OUTER ITERATIONS 
       AND A TOTAL OF          5 INNER ITERATIONS.
    ------------------------------------------------

 NO OUTPUT CONTROL FOR STRESS PERIOD   17   TIME STEP    5
 
 SOLVING FOR HEAD 
                                                   Max.-Head-Change                         Max.-Flux-Residual
  Residual-Control   Outer-Iter.   Inner-Iter.     Column Row Layer    Maximum-Head-Change  Column Row Layer    Maximum-Flux-Residual          L2-NORM 
          0                 1           2             3    7     1       0.6179157010E-02       3   13    1        -0.3240138814E+00      0.1064199058E+01
          0                 2           2             3    7     1      -0.6010630821E-03       3   13    1         0.3162365393E-01      0.1057904140E+00
          0                 3           1             3    7     1       0.4093022958E-04       3   13    1        -0.2139218559E-02      0.7348145388E-02

    ------------------------------------------------
       NWT REQUIRED            3 OUTER ITERATIONS 
       AND A TOTAL OF          5 INNER ITERATIONS.
    ------------------------------------------------

 NO OUTPUT CONTROL FOR STRESS PERIOD   17   TIME STEP    6
 
 SOLVING FOR HEAD 
                                                   Max.-Head-Change                         Max.-Flux-Residual
  Residual-Control   Outer-Iter.   Inner-Iter.     Column Row Layer    Maximum-Head-Change  Column Row Layer    Maximum-Flux-Residual          L2-NORM 
          0                 1           2             3    7     1       0.6046370653E-02       3   13    1        -0.2889652819E+00      0.1019221211E+01
          0                 2           2             3    7     1      -0.5881465939E-03       3   13    1         0.2820626471E-01      0.1013888674E+00
          0                 3           1             3    7     1       0.4005066011E-04       3   13    1        -0.1908639917E-02      0.7048440554E-02

    ------------------------------------------------
       NWT REQUIRED            3 OUTER ITERATIONS 
       AND A TOTAL OF          5 INNER ITERATIONS.
    ------------------------------------------------

 NO OUTPUT CONTROL FOR STRESS PERIOD   17   TIME STEP    7
 
 SOLVING FOR HEAD 
                                                   Max.-Head-Change                         Max.-Flux-Residual
  Residual-Control   Outer-Iter.   Inner-Iter.     Column Row Layer    Maximum-Head-Change  Column Row Layer    Maximum-Flux-Residual          L2-NORM 
          0                 1           2             3    7     1       0.5916068327E-02       3   13    1        -0.2577252743E+00      0.9791559049E+00
          0                 2           2             3    7     1      -0.5754717349E-03       3   13    1         0.2515886895E-01      0.9746533903E-01
          0                 3           1             3    7     1       0.3918754582E-04       3   13    1        -0.1701107597E-02      0.6781443741E-02

    ------------------------------------------------
       NWT REQUIRED            3 OUTER ITERATIONS 
       AND A TOTAL OF          5 INNER ITERATIONS.
    ------------------------------------------------

 NO OUTPUT CONTROL FOR STRESS PERIOD   17   TIME STEP    8
 
 SOLVING FOR HEAD 
                                                   Max.-Head-Change                         Max.-Flux-Residual
  Residual-Control   Outer-Iter.   Inner-Iter.     Column Row Layer    Maximum-Head-Change  Column Row Layer    Maximum-Flux-Residual          L2-NORM 
          0                 1           2             3    7     1       0.5788235339E-02       1    1    1         0.2353322168E+00      0.9433239079E+00
          0                 2           2             3    7     1      -0.5630370770E-03       1    1    1        -0.2353326097E-01      0.9395239801E-01
          0                 3           1             3    7     1       0.3834078826E-04       1    1    1         0.1647328623E-02      0.6541928624E-02

    ------------------------------------------------
       NWT REQUIRED            3 OUTER ITERATIONS 
       AND A TOTAL OF          5 INNER ITERATIONS.
    ------------------------------------------------

 NO OUTPUT CONTROL FOR STRESS PERIOD   17   TIME STEP    9
 
 SOLVING FOR HEAD 
                                                   Max.-Head-Change                         Max.-Flux-Residual
  Residual-Control   Outer-Iter.   Inner-Iter.     Column Row Layer    Maximum-Head-Change  Column Row Layer    Maximum-Flux-Residual          L2-NORM 
          0                 1           2             3    7     1       0.5662851184E-02       1    1    1         0.2350806808E+00      0.9111386152E+00
          0                 2           2             3    7     1      -0.5508406240E-03       1    1    1        -0.2350810721E-01      0.9079443489E-01
          0                 3           1             3    7     1       0.3751025205E-04       1    1    1         0.1645567840E-02      0.6326669871E-02

    ------------------------------------------------
       NWT REQUIRED            3 OUTER ITERATIONS 
       AND A TOTAL OF          5 INNER ITERATIONS.
    ------------------------------------------------

 NO OUTPUT CONTROL FOR STRESS PERIOD   17   TIME STEP   10
 
 SOLVING FOR HEAD 
                                                   Max.-Head-Change                         Max.-Flux-Residual
  Residual-Control   Outer-Iter.   Inner-Iter.     Column Row Layer    Maximum-Head-Change  Column Row Layer    Maximum-Flux-Residual          L2-NORM 
          0                 1           2             3    7     1       0.5539897206E-02       1    1    1         0.2348299881E+00      0.8820900700E+00
          0                 2           2             3    7     1      -0.5388805612E-03       1    1    1        -0.2348303777E-01      0.8794001564E-01
          0                 3           1             3    7     1       0.3669581317E-04       1    1    1         0.1643812987E-02      0.6130989527E-02

    ------------------------------------------------
       NWT REQUIRED            3 OUTER ITERATIONS 
       AND A TOTAL OF          5 INNER ITERATIONS.
    ------------------------------------------------

 NO OUTPUT CONTROL FOR STRESS PERIOD   17   TIME STEP   11
 
 SOLVING FOR HEAD 
                                                   Max.-Head-Change                         Max.-Flux-Residual
  Residual-Control   Outer-Iter.   Inner-Iter.     Column Row Layer    Maximum-Head-Change  Column Row Layer    Maximum-Flux-Residual          L2-NORM 
          0                 1           2             3    7     1       0.5419590079E-02       1    1    1         0.2345801354E+00      0.8557633472E+00
          0                 2           2             3    7     1      -0.5271779658E-03       1    1    1        -0.2345805234E-01      0.8534997137E-01
          0                 3           1             3    7     1       0.3589890787E-04       1    1    1         0.1642064005E-02      0.5953565404E-02

    ------------------------------------------------
       NWT REQUIRED            3 OUTER ITERATIONS 
       AND A TOTAL OF          5 INNER ITERATIONS.
    ------------------------------------------------

 NO OUTPUT CONTROL FOR STRESS PERIOD   17   TIME STEP   12
 
 SOLVING FOR HEAD 
                                                   Max.-Head-Change                         Max.-Flux-Residual
  Residual-Control   Outer-Iter.   Inner-Iter.     Column Row Layer    Maximum-Head-Change  Column Row Layer    Maximum-Flux-Residual          L2-NORM 
          0                 1           2             3    7     1       0.5301657489E-02       1    1    1         0.2343299122E+00      0.8317836603E+00
          0                 2           2             3    7     1      -0.5157063483E-03       1    1    1        -0.2343302986E-01      0.8298856772E-01
          0                 3           1             3    7     1       0.3511773023E-04       1    1    1         0.1640312431E-02      0.5792097306E-02

    ------------------------------------------------
       NWT REQUIRED            3 OUTER ITERATIONS 
       AND A TOTAL OF          5 INNER ITERATIONS.
    ------------------------------------------------

 NO OUTPUT CONTROL FOR STRESS PERIOD   17   TIME STEP   13
 
 SOLVING FOR HEAD 
                                                   Max.-Head-Change                         Max.-Flux-Residual
  Residual-Control   Outer-Iter.   Inner-Iter.     Column Row Layer    Maximum-Head-Change  Column Row Layer    Maximum-Flux-Residual          L2-NORM 
          0                 1           2             3    7     1       0.5186068463E-02       1    1    1         0.2340817249E+00      0.8098416826E+00
          0                 2           2             3    7     1      -0.5044626965E-03       1    1    1        -0.2340821094E-01      0.8082475164E-01
          0                 3           1             3    7     1       0.3435207764E-04       1    1    1         0.1638575105E-02      0.5643233636E-02

    ------------------------------------------------
       NWT REQUIRED            3 OUTER ITERATIONS 
       AND A TOTAL OF          5 INNER ITERATIONS.
    ------------------------------------------------

 NO OUTPUT CONTROL FOR STRESS PERIOD   17   TIME STEP   14
 
 SOLVING FOR HEAD 
                                                   Max.-Head-Change                         Max.-Flux-Residual
  Residual-Control   Outer-Iter.   Inner-Iter.     Column Row Layer    Maximum-Head-Change  Column Row Layer    Maximum-Flux-Residual          L2-NORM 
          0                 1           2             3    7     1       0.5072794705E-02       1    1    1         0.2338343637E+00      0.7896780390E+00
          0                 2           2             3    7     1      -0.4934442571E-03       1    1    1        -0.2338347467E-01      0.7883481344E-01
          0                 3           1             3    7     1       0.3360176029E-04       1    1    1         0.1636843585E-02      0.5506588393E-02

    ------------------------------------------------
       NWT REQUIRED            3 OUTER ITERATIONS 
       AND A TOTAL OF          5 INNER ITERATIONS.
    ------------------------------------------------

 NO OUTPUT CONTROL FOR STRESS PERIOD   17   TIME STEP   15
 
 SOLVING FOR HEAD 
                                                   Max.-Head-Change                         Max.-Flux-Residual
  Residual-Control   Outer-Iter.   Inner-Iter.     Column Row Layer    Maximum-Head-Change  Column Row Layer    Maximum-Flux-Residual          L2-NORM 
          0                 1           2             3    7     1       0.4962049321E-02       1    1    1         0.2335866180E+00      0.7710683374E+00
          0                 2           2             3    7     1      -0.4826717597E-03       1    1    1        -0.2335869995E-01      0.7699470201E-01
          0                 3           1             3    7     1       0.3286819161E-04       1    1    1         0.1635109354E-02      0.5379314143E-02

    ------------------------------------------------
       NWT REQUIRED            3 OUTER ITERATIONS 
       AND A TOTAL OF          5 INNER ITERATIONS.
    ------------------------------------------------

 NO OUTPUT CONTROL FOR STRESS PERIOD   17   TIME STEP   16
 
 SOLVING FOR HEAD 
                                                   Max.-Head-Change                         Max.-Flux-Residual
  Residual-Control   Outer-Iter.   Inner-Iter.     Column Row Layer    Maximum-Head-Change  Column Row Layer    Maximum-Flux-Residual          L2-NORM 
          0                 1           2             3    7     1       0.4853542696E-02       1    1    1         0.2333408963E+00      0.7538255316E+00
          0                 2           2             3    7     1      -0.4714457730E-03       1    1    1        -0.2333412761E-01      0.7527159112E-01
          0                 3           1             3    7     1       0.3210372629E-04       1    1    1         0.1633389267E-02      0.5260573577E-02

    ------------------------------------------------
       NWT REQUIRED            3 OUTER ITERATIONS 
       AND A TOTAL OF          5 INNER ITERATIONS.
    ------------------------------------------------

 NO OUTPUT CONTROL FOR STRESS PERIOD   17   TIME STEP   17
 
 SOLVING FOR HEAD 
                                                   Max.-Head-Change                         Max.-Flux-Residual
  Residual-Control   Outer-Iter.   Inner-Iter.     Column Row Layer    Maximum-Head-Change  Column Row Layer    Maximum-Flux-Residual          L2-NORM 
          0                 1           2             3    7     1       0.4756851754E-02       1    1    1         0.2330947808E+00      0.7377946981E+00
          0                 2           2             3    7     1      -0.4627128853E-03       1    1    1        -0.2330951589E-01      0.7370045679E-01
          0                 3           1             3    7     1       0.3150904754E-04       1    1    1         0.1631666469E-02      0.5151757335E-02

    ------------------------------------------------
       NWT REQUIRED            3 OUTER ITERATIONS 
       AND A TOTAL OF          5 INNER ITERATIONS.
    ------------------------------------------------

 NO OUTPUT CONTROL FOR STRESS PERIOD   17   TIME STEP   18
 
 SOLVING FOR HEAD 
                                                   Max.-Head-Change                         Max.-Flux-Residual
  Residual-Control   Outer-Iter.   Inner-Iter.     Column Row Layer    Maximum-Head-Change  Column Row Layer    Maximum-Flux-Residual          L2-NORM 
          0                 1           2             3    7     1       0.4661439725E-02       1    1    1         0.2328506816E+00      0.7229224910E+00
          0                 2           2             3    7     1      -0.4534318591E-03       1    1    1        -0.2328510581E-01      0.7222622247E-01
          0                 3           1             3    7     1       0.3087704351E-04       1    1    1         0.1629957744E-02      0.5049893690E-02

    ------------------------------------------------
       NWT REQUIRED            3 OUTER ITERATIONS 
       AND A TOTAL OF          5 INNER ITERATIONS.
    ------------------------------------------------

 NO OUTPUT CONTROL FOR STRESS PERIOD   17   TIME STEP   19
 
 SOLVING FOR HEAD 
                                                   Max.-Head-Change                         Max.-Flux-Residual
  Residual-Control   Outer-Iter.   Inner-Iter.     Column Row Layer    Maximum-Head-Change  Column Row Layer    Maximum-Flux-Residual          L2-NORM 
          0                 1           2             3    7     1       0.4567725540E-02       1    1    1         0.2326061795E+00      0.7089979365E+00
          0                 2           2             3    7     1      -0.4443159886E-03       1    1    1        -0.2326065546E-01      0.7084407374E-01
          0                 3           1             3    7     1       0.3025628609E-04       1    1    1         0.1628246233E-02      0.4954065761E-02

    ------------------------------------------------
       NWT REQUIRED            3 OUTER ITERATIONS 
       AND A TOTAL OF          5 INNER ITERATIONS.
    ------------------------------------------------

 NO OUTPUT CONTROL FOR STRESS PERIOD   17   TIME STEP   20
 
 SOLVING FOR HEAD 
                                                   Max.-Head-Change                         Max.-Flux-Residual
  Residual-Control   Outer-Iter.   Inner-Iter.     Column Row Layer    Maximum-Head-Change  Column Row Layer    Maximum-Flux-Residual          L2-NORM 
          0                 1           2             1    1     1       0.4476047085E-02       1    1    1         0.2323624789E+00      0.6959205614E+00
          0                 2           2             1    1     1      -0.4353978915E-03       1    1    1        -0.2323628523E-01      0.6954517308E-01
          0                 3           1             1    1     1       0.2964897667E-04       1    1    1         0.1626540309E-02      0.4863470186E-02

    ------------------------------------------------
       NWT REQUIRED            3 OUTER ITERATIONS 
       AND A TOTAL OF          5 INNER ITERATIONS.
    ------------------------------------------------

 NO OUTPUT CONTROL FOR STRESS PERIOD   17   TIME STEP   21
 
 SOLVING FOR HEAD 
                                                   Max.-Head-Change                         Max.-Flux-Residual
  Residual-Control   Outer-Iter.   Inner-Iter.     Column Row Layer    Maximum-Head-Change  Column Row Layer    Maximum-Flux-Residual          L2-NORM 
          0                 1           2             1    1     1       0.4471400685E-02       1    1    1         0.2321207797E+00      0.6836040137E+00
          0                 2           2             1    1     1      -0.4349459213E-03       1    1    1        -0.2321211515E-01      0.6832115222E-01
          0                 3           1             1    1     1       0.2961819921E-04       1    1    1         0.1624848413E-02      0.4778953697E-02

    ------------------------------------------------
       NWT REQUIRED            3 OUTER ITERATIONS 
       AND A TOTAL OF          5 INNER ITERATIONS.
    ------------------------------------------------

 NO OUTPUT CONTROL FOR STRESS PERIOD   17   TIME STEP   22
 
 SOLVING FOR HEAD 
                                                   Max.-Head-Change                         Max.-Flux-Residual
  Residual-Control   Outer-Iter.   Inner-Iter.     Column Row Layer    Maximum-Head-Change  Column Row Layer    Maximum-Flux-Residual          L2-NORM 
          0                 1           2             1    1     1       0.4466746243E-02       1    1    1         0.2318786665E+00      0.6719867752E+00
          0                 2           2             1    1     1      -0.4344931686E-03       1    1    1        -0.2318790369E-01      0.6716563439E-01
          0                 3           1             1    1     1       0.2958736826E-04       1    1    1         0.1623153597E-02      0.4698620177E-02

    ------------------------------------------------
       NWT REQUIRED            3 OUTER ITERATIONS 
       AND A TOTAL OF          5 INNER ITERATIONS.
    ------------------------------------------------

 NO OUTPUT CONTROL FOR STRESS PERIOD   17   TIME STEP   23
 
 SOLVING FOR HEAD 
                                                   Max.-Head-Change                         Max.-Flux-Residual
  Residual-Control   Outer-Iter.   Inner-Iter.     Column Row Layer    Maximum-Head-Change  Column Row Layer    Maximum-Flux-Residual          L2-NORM 
          0                 1           2             1    1     1       0.4462106903E-02       1    1    1         0.2316373419E+00      0.6609881206E+00
          0                 2           2             1    1     1      -0.4340418847E-03       1    1    1        -0.2316377107E-01      0.6607080129E-01
          0                 3           1             1    1     1       0.2955663741E-04       1    1    1         0.1621464314E-02      0.4622488555E-02

    ------------------------------------------------
       NWT REQUIRED            3 OUTER ITERATIONS 
       AND A TOTAL OF          5 INNER ITERATIONS.
    ------------------------------------------------

 NO OUTPUT CONTROL FOR STRESS PERIOD   17   TIME STEP   24
 
 SOLVING FOR HEAD 
                                                   Max.-Head-Change                         Max.-Flux-Residual
  Residual-Control   Outer-Iter.   Inner-Iter.     Column Row Layer    Maximum-Head-Change  Column Row Layer    Maximum-Flux-Residual          L2-NORM 
          0                 1           2             1    1     1       0.4457482629E-02       1    1    1         0.2313968004E+00      0.6505629825E+00
          0                 2           2             1    1     1      -0.4335920671E-03       1    1    1        -0.2313971677E-01      0.6503300884E-01
          0                 3           1             1    1     1       0.2952600692E-04       1    1    1         0.1619780529E-02      0.4550190846E-02

    ------------------------------------------------
       NWT REQUIRED            3 OUTER ITERATIONS 
       AND A TOTAL OF          5 INNER ITERATIONS.
    ------------------------------------------------

 NO OUTPUT CONTROL FOR STRESS PERIOD   17   TIME STEP   25
 
 SOLVING FOR HEAD 
                                                   Max.-Head-Change                         Max.-Flux-Residual
  Residual-Control   Outer-Iter.   Inner-Iter.     Column Row Layer    Maximum-Head-Change  Column Row Layer    Maximum-Flux-Residual          L2-NORM 
          0                 1           2             1    1     1       0.4452896545E-02       1    1    1         0.2311582462E+00      0.6406661156E+00
          0                 2           2             1    1     1      -0.4331459638E-03       1    1    1        -0.2311586120E-01      0.6404674462E-01
          0                 3           1             1    1     1       0.2949562896E-04       1    1    1         0.1618110635E-02      0.4481376100E-02

    ------------------------------------------------
       NWT REQUIRED            3 OUTER ITERATIONS 
       AND A TOTAL OF          5 INNER ITERATIONS.
    ------------------------------------------------

 NO OUTPUT CONTROL FOR STRESS PERIOD   17   TIME STEP   26
 
 SOLVING FOR HEAD 
                                                   Max.-Head-Change                         Max.-Flux-Residual
  Residual-Control   Outer-Iter.   Inner-Iter.     Column Row Layer    Maximum-Head-Change  Column Row Layer    Maximum-Flux-Residual          L2-NORM 
          0                 1           2             1    1     1       0.4448302088E-02       1    1    1         0.2309192598E+00      0.6312472172E+00
          0                 2           2             1    1     1      -0.4326990462E-03       1    1    1        -0.2309196242E-01      0.6310840821E-01
          0                 3           1             1    1     1       0.2946519538E-04       1    1    1         0.1616437719E-02      0.4416032418E-02

    ------------------------------------------------
       NWT REQUIRED            3 OUTER ITERATIONS 
       AND A TOTAL OF          5 INNER ITERATIONS.
    ------------------------------------------------

 NO OUTPUT CONTROL FOR STRESS PERIOD   17   TIME STEP   27
 
 SOLVING FOR HEAD 
                                                   Max.-Head-Change                         Max.-Flux-Residual
  Residual-Control   Outer-Iter.   Inner-Iter.     Column Row Layer    Maximum-Head-Change  Column Row Layer    Maximum-Flux-Residual          L2-NORM 
          0                 1           2             1    1     1       0.4443722458E-02       1    1    1         0.2306810454E+00      0.6222769358E+00
          0                 2           2             1    1     1      -0.4322535708E-03       1    1    1        -0.2306814083E-01      0.6221344903E-01
          0                 3           1             1    1     1       0.2943486026E-04       1    1    1         0.1614770206E-02      0.4353557616E-02

    ------------------------------------------------
       NWT REQUIRED            3 OUTER ITERATIONS 
       AND A TOTAL OF          5 INNER ITERATIONS.
    ------------------------------------------------

 NO OUTPUT CONTROL FOR STRESS PERIOD   17   TIME STEP   28
 
 SOLVING FOR HEAD 
                                                   Max.-Head-Change                         Max.-Flux-Residual
  Residual-Control   Outer-Iter.   Inner-Iter.     Column Row Layer    Maximum-Head-Change  Column Row Layer    Maximum-Flux-Residual          L2-NORM 
          0                 1           2             1    1     1       0.4439157561E-02       1    1    1         0.2304435998E+00      0.6137126429E+00
          0                 2           2             1    1     1      -0.4318095287E-03       1    1    1        -0.2304439612E-01      0.6135905908E-01
          0                 3           1             1    1     1       0.2940462288E-04       1    1    1         0.1613108092E-02      0.4294019961E-02

    ------------------------------------------------
       NWT REQUIRED            3 OUTER ITERATIONS 
       AND A TOTAL OF          5 INNER ITERATIONS.
    ------------------------------------------------

 NO OUTPUT CONTROL FOR STRESS PERIOD   17   TIME STEP   29
 
 SOLVING FOR HEAD 
                                                   Max.-Head-Change                         Max.-Flux-Residual
  Residual-Control   Outer-Iter.   Inner-Iter.     Column Row Layer    Maximum-Head-Change  Column Row Layer    Maximum-Flux-Residual          L2-NORM 
          0                 1           2             1    1     1       0.3856094072E-02       4   13    1        -0.2139513563E+00      0.6907274888E+00
          0                 2           2             1    1     1      -0.3750931763E-03       4   13    1         0.2118078127E-01      0.6845593139E-01
          0                 3           1             1    1     1       0.2554245116E-04       4   13    1        -0.1462796898E-02      0.4735896213E-02

    ------------------------------------------------
       NWT REQUIRED            3 OUTER ITERATIONS 
       AND A TOTAL OF          5 INNER ITERATIONS.
    ------------------------------------------------

 NO OUTPUT CONTROL FOR STRESS PERIOD   17   TIME STEP   30



 STREAM LISTING     PERIOD     17   STEP       30

 LAYER ROW COL. STREAM  RCH.  FLOW INTO     FLOW TO   FLOW OUT OF   OVRLND.     DIRECT     STREAM       STREAM     STREAM     STREAM   STREAMBED  STREAMBED
                SEG.NO.  NO.  STRM. RCH.    AQUIFER    STRM. RCH.    RUNOFF     PRECIP       ET          HEAD       DEPTH      WIDTH   CONDCTNC.   GRADIENT

   1    1    1     1     1    6.5908E+01  3.9227E-01   6.5516E+01  0.000E+00  0.000E+00  0.000E+00  1.09464E+03  1.596E+00  1.897E+01  8.536E-02  1.532E+00
   1    2    2     1     2    6.5516E+01  6.0756E-01   6.4909E+01  0.000E+00  0.000E+00  0.000E+00  1.08965E+03  1.590E+00  1.891E+01  1.324E-01  1.530E+00
   1    3    3     1     3    6.4909E+01  5.1821E-01   6.4390E+01  0.000E+00  0.000E+00  0.000E+00  1.08400E+03  1.583E+00  1.884E+01  1.131E-01  1.528E+00
   1    3    4     1     4    6.4390E+01  4.7725E-01   6.3913E+01  0.000E+00  0.000E+00  0.000E+00  1.07899E+03  1.577E+00  1.879E+01  1.043E-01  1.526E+00
   1    4    5     2     1    6.1913E+01  3.9598E-01   6.1517E+01  0.000E+00  0.000E+00  0.000E+00  1.07401E+03  2.077E+00  1.200E+01  7.800E-02  1.692E+00
   1    5    6     2     2    6.1517E+01  3.0418E-01   6.1213E+01  0.000E+00  0.000E+00  0.000E+00  1.06858E+03  2.070E+00  1.200E+01  6.000E-02  1.690E+00
   1    6    6     2     3    6.1213E+01  3.0381E-01   6.0909E+01  0.000E+00  0.000E+00  0.000E+00  1.06386E+03  2.063E+00  1.200E+01  6.000E-02  1.688E+00
   1    7    6     2     4    6.0909E+01  3.0344E-01   6.0606E+01  0.000E+00  0.000E+00  0.000E+00  1.05913E+03  2.057E+00  1.200E+01  6.000E-02  1.686E+00
   1    8    6     2     5    6.0606E+01  3.0307E-01   6.0303E+01  0.000E+00  0.000E+00  0.000E+00  1.05441E+03  2.051E+00  1.200E+01  6.000E-02  1.684E+00
   1    3    5     3     1    2.0000E+00  2.8252E-01   1.7175E+00  0.000E+00  0.000E+00  0.000E+00  1.07555E+03  1.909E+00  9.636E+00  7.227E-02  1.955E+00
   1    3    6     3     2    1.7175E+00  2.4905E-01   1.4684E+00  0.000E+00  0.000E+00  0.000E+00  1.07264E+03  1.727E+00  8.909E+00  6.682E-02  1.864E+00
   1    3    7     3     3    1.4684E+00  1.9718E-01   1.2712E+00  0.000E+00  0.000E+00  0.000E+00  1.06987E+03  1.555E+00  8.218E+00  5.547E-02  1.777E+00
   1    4    8     3     4    1.2712E+00  2.2567E-01   1.0456E+00  0.000E+00  0.000E+00  0.000E+00  1.06682E+03  1.364E+00  7.455E+00  6.709E-02  1.682E+00
   1    5    8     3     5    1.0456E+00  1.5790E-01   8.8768E-01  0.000E+00  0.000E+00  0.000E+00  1.06362E+03  1.164E+00  6.655E+00  4.991E-02  1.582E+00
   1    6    8     3     6    8.8768E-01  5.5980E-02   8.3170E-01  0.000E+00  0.000E+00  0.000E+00  1.06158E+03  1.036E+00  6.145E+00  1.844E-02  1.518E+00
   1    5   10     4     1    1.0000E+01  9.0919E-02   9.9091E+00  0.000E+00  0.000E+00  0.000E+00  1.07836E+03  6.368E-01  1.000E+01  2.500E-02  1.212E+00
   1    5    9     4     2    9.9091E+00  1.8158E-01   9.7275E+00  0.000E+00  0.000E+00  0.000E+00  1.07154E+03  6.315E-01  1.000E+01  5.000E-02  1.211E+00
   1    6    8     4     3    9.7275E+00  1.2689E-01   9.6006E+00  0.000E+00  0.000E+00  0.000E+00  1.06381E+03  6.256E-01  1.000E+01  3.500E-02  1.209E+00
   1    6    8     5     1    1.0432E+01  2.2686E-01   1.0205E+01  0.000E+00  0.000E+00  0.000E+00  1.05868E+03  6.790E-01  1.542E+01  6.166E-02  1.226E+00
   1    7    7     5     2    1.0205E+01  2.7894E-01   9.9265E+00  0.000E+00  0.000E+00  0.000E+00  1.05417E+03  6.732E-01  1.519E+01  7.594E-02  1.224E+00
   1    8    7     5     3    9.9265E+00  1.9221E-01   9.7343E+00  0.000E+00  0.000E+00  0.000E+00  1.04992E+03  6.676E-01  1.497E+01  5.241E-02  1.223E+00
   1    8    6     5     4    9.7343E+00  1.3577E-01   9.5985E+00  0.000E+00  0.000E+00  0.000E+00  1.04691E+03  6.637E-01  1.482E+01  3.706E-02  1.221E+00
   1    9    6     6     1    6.9901E+01  3.1559E-01   6.9586E+01  0.000E+00  0.000E+00  0.000E+00  1.04499E+03  2.260E+00  1.200E+01  6.000E-02  1.753E+00
   1   10    7     6     2    6.9586E+01  3.1522E-01   6.9270E+01  0.000E+00  0.000E+00  0.000E+00  1.04044E+03  2.254E+00  1.200E+01  6.000E-02  1.751E+00
   1   11    7     6     3    6.9270E+01  3.1485E-01   6.8955E+01  0.000E+00  0.000E+00  0.000E+00  1.03588E+03  2.248E+00  1.200E+01  6.000E-02  1.749E+00
   1   12    7     6     4    6.8955E+01  3.1448E-01   6.8641E+01  0.000E+00  0.000E+00  0.000E+00  1.03133E+03  2.241E+00  1.200E+01  6.000E-02  1.747E+00
   1   13    7     6     5    6.8641E+01  2.4919E-02   6.8616E+01  0.000E+00  0.000E+00  0.000E+00  1.02815E+03  2.238E+00  1.200E+01  2.400E-02  3.461E-01
   1   14    9     7     1    1.5000E+02  1.3306E+00   1.4867E+02  0.000E+00  0.000E+00  0.000E+00  1.03987E+03  2.288E+00  5.529E+01  5.593E-01  7.930E-01
   1   13    8     7     2    1.4867E+02  1.8222E+00   1.4685E+02  0.000E+00  0.000E+00  0.000E+00  1.03478E+03  2.279E+00  5.526E+01  6.148E-01  9.880E-01
   1   13    7     7     3    1.4685E+02  1.4415E+00   1.4541E+02  0.000E+00  0.000E+00  0.000E+00  1.02969E+03  2.271E+00  5.522E+01  5.585E-01  8.604E-01
   1   13    6     8     1    2.1402E+02  1.0674E+00   2.1295E+02  0.000E+00  0.000E+00  0.000E+00  1.02509E+03  3.215E+00  4.662E+01  4.751E-01  7.489E-01
   1   13    5     8     2    2.1295E+02  2.5518E-01   2.1270E+02  0.000E+00  0.000E+00  0.000E+00  1.01884E+03  3.212E+00  4.657E+01  4.746E-01  1.792E-01
   1   13    4     8     3    2.1270E+02 -2.3202E+00   2.1502E+02  0.000E+00  0.000E+00  0.000E+00  1.01259E+03  3.218E+00  4.665E+01  4.754E+00 -1.627E-01
   1   13    3     8     4    2.1502E+02 -3.6147E+00   2.1863E+02  0.000E+00  0.000E+00  0.000E+00  1.00636E+03  3.234E+00  4.690E+01  4.779E+00 -2.521E-01
   1   13    2     8     5    2.1863E+02 -2.7123E+00   2.2135E+02  0.000E+00  0.000E+00  0.000E+00  1.00013E+03  3.252E+00  4.715E+01  4.805E+00 -1.882E-01
   1   13    1     8     6    2.2135E+02 -2.0832E+00   2.2343E+02  0.000E+00  0.000E+00  0.000E+00  9.95140E+02  3.265E+00  4.734E+01  2.895E+00 -2.399E-01





UNSATURATED ZONE PACKAGE VOLUMETRIC BUDGET FOR  TIME STEP    30 STRESS PERIOD   17
  ------------------------------------------------------------------------------



     CUMULATIVE VOLUMES      L**3       RATES FOR THIS TIME STEP      L**3/T
     ------------------                 ------------------------

           IN:                                      IN:
           ---                                      ---
        INFILTRATION =   521360294.7473          INFILTRATION =           4.5675

          OUT:                                     OUT:
          ----                                     ----
              UZF ET =   449267874.6912                UZF ET =           4.5675
        UZF RECHARGE =    72022227.3421          UZF RECHARGE =       0.0000E+00

            IN - OUT =       70192.7140              IN - OUT =       0.0000E+00

          STORAGE:                                 STORAGE:
          --------                                 --------
      STORAGE CHANGE =       70185.5785        STORAGE CHANGE =       8.4202E-15

 PERCENT DISCREPANCY IS DIFFERENCE BETWEEN IN-OUT MINUS CHANGE IN STORAGE
 DIVIDED BY THE AVERAGE OF IN AND OUT TIMES 100

 PERCENT DISCREPANCY =           0.00     PERCENT DISCREPANCY =           0.00






1
  VOLUMETRIC BUDGET FOR AGRICULTURAL FIELDS AT  END OF TIME STEP   30, STRESS PERIOD  17
  ------------------------------------------------------------------------------

     CUMULATIVE VOLUMES      L**3       RATES FOR THIS TIME STEP      L**3/T
     ------------------                 ------------------------

           IN:                                      IN:
           ---                                      ---
               AG WELLS  =   485623488.0000                 AG WELLS  =           3.7200
      DIVERSION SEGMENTS =           0.0000        DIVERSION SEGMENTS =           0.0000
           GW IRRIGATION =           0.0000             GW IRRIGATION =           0.0000
           SW IRRIGATION =           0.0000             SW IRRIGATION =           0.0000
        SYSTEM LOSSES GW =           0.0000          SYSTEM LOSSES GW =           0.0000
        SYSTEM LOSSES SW =           0.0000          SYSTEM LOSSES SW =           0.0000

                TOTAL IN =   485623488.0000                  TOTAL IN =           3.7200

          OUT:                                     OUT:
          ----                                     ----
               AG WELLS  =           0.0000                 AG WELLS  =           0.0000
      DIVERSION SEGMENTS =           0.0000        DIVERSION SEGMENTS =           0.0000
           GW IRRIGATION =   485623488.0000             GW IRRIGATION =           3.7200
           SW IRRIGATION =           0.0000             SW IRRIGATION =           0.0000
        SYSTEM LOSSES GW =           0.0000          SYSTEM LOSSES GW =           0.0000
        SYSTEM LOSSES SW =           0.0000          SYSTEM LOSSES SW =           0.0000

               TOTAL OUT =   485623488.0000                 TOTAL OUT =           3.7200

                IN - OUT =           0.0000                  IN - OUT =           0.0000

     PERCENT DISCREPANCY =           0.00         PERCENT DISCREPANCY =           0.00



1
  VOLUMETRIC BUDGET FOR ENTIRE MODEL AT END OF TIME STEP   30, STRESS PERIOD  17
  ------------------------------------------------------------------------------

     CUMULATIVE VOLUMES      L**3       RATES FOR THIS TIME STEP      L**3/T
     ------------------                 ------------------------

           IN:                                      IN:
           ---                                      ---
             STORAGE     =   642749376.0000               STORAGE     =           3.4479
       CONSTANT HEAD     =           0.0000         CONSTANT HEAD     =           0.0000
     HEAD DEP BOUNDS     =    12034782.0000       HEAD DEP BOUNDS     =           0.2854
      STREAM LEAKAGE     =   527622496.0000        STREAM LEAKAGE     =          13.2091
        UZF RECHARGE     =    72022192.0000          UZF RECHARGE     =           0.0000
               GW ET     =           0.0000                 GW ET     =           0.0000
     SURFACE LEAKAGE     =           0.0000       SURFACE LEAKAGE     =           0.0000
           AG WELLS      =           0.0000             AG WELLS      =           0.0000

                TOTAL IN =  1254428800.0000                  TOTAL IN =          16.9424

          OUT:                                     OUT:
          ----                                     ----
             STORAGE     =   307750464.0000               STORAGE     =           1.9496
       CONSTANT HEAD     =           0.0000         CONSTANT HEAD     =           0.0000
     HEAD DEP BOUNDS     =    12416436.0000       HEAD DEP BOUNDS     =           0.2987
      STREAM LEAKAGE     =   434099904.0000        STREAM LEAKAGE     =          10.7304
        UZF RECHARGE     =           0.0000          UZF RECHARGE     =           0.0000
               GW ET     =    14536703.0000                 GW ET     =           0.2433
     SURFACE LEAKAGE     =           0.0000       SURFACE LEAKAGE     =           0.0000
           AG WELLS      =   485623488.0000             AG WELLS      =           3.7200

               TOTAL OUT =  1254427008.0000                 TOTAL OUT =          16.9420

                IN - OUT =        1792.0000                  IN - OUT =       4.3488E-04

     PERCENT DISCREPANCY =           0.00         PERCENT DISCREPANCY =           0.00






         TIME SUMMARY AT END OF TIME STEP   30 IN STRESS PERIOD   17
                    SECONDS     MINUTES      HOURS       DAYS        YEARS
                    -----------------------------------------------------------
   TIME STEP LENGTH  87667.      1461.1      24.352      1.0147     2.77799E-03
 STRESS PERIOD TIME 2.63000E+06  43833.      730.56      30.440     8.33397E-02
         TOTAL TIME 4.21664E+07 7.02774E+05  11713.      488.04      1.3362    
1
1
                            STRESS PERIOD NO.   18, LENGTH =   2630000.    
                            -----------------------------------------------

                              NUMBER OF TIME STEPS =    30

                               MULTIPLIER FOR DELT =     1.000

                            INITIAL TIME STEP SIZE =   87666.66    

 REUSING NON-PARAMETER GHB CELLS FROM LAST STRESS PERIOD

      2 GHB CELLS

 REUSING STREAM SEGMENT DATA FROM LAST STRESS PERIOD



            AREAL INFILTRATION RATE
 READING ON UNIT   19 WITH FORMAT: (FREE)              

            1           2           3           4           5           6           7           8           9          10
 ........................................................................................................................
   1   1.0000E-10  2.0000E-10   0.000       0.000       0.000       0.000       0.000       0.000       0.000       0.000    
   2   2.0000E-10  1.0000E-10  2.0000E-10   0.000       0.000      8.0000E-10  8.0000E-10  5.0000E-10   0.000       0.000    
   3    0.000      5.0000E-10  1.0000E-10  1.0000E-10  8.0000E-10  8.0000E-10  5.0000E-10  5.0000E-10   0.000       0.000    
   4   8.0000E-10  5.0000E-10  1.0000E-10  1.0000E-10  1.0000E-10  1.0000E-10  1.0000E-10  1.0000E-10  2.0000E-10   0.000    
   5   8.0000E-10  5.0000E-10  1.0000E-10  1.0000E-10  1.0000E-10  1.0000E-10  1.0000E-10  1.0000E-10  1.0000E-10  1.0000E-10
   6   8.0000E-10  5.0000E-10  5.0000E-10  2.0000E-10  2.0000E-10  1.0000E-10  1.0000E-10  1.0000E-10  1.0000E-10  5.0000E-10
   7   8.0000E-10  5.0000E-10  5.0000E-10  2.0000E-10  2.0000E-10  1.0000E-10  1.0000E-10  2.0000E-10  2.0000E-10   0.000    
   8    0.000      5.0000E-10  5.0000E-10  2.0000E-10  2.0000E-10  1.0000E-10  1.0000E-10  2.0000E-10  5.0000E-10   0.000    
   9    0.000      5.0000E-10  5.0000E-10  2.0000E-10  2.0000E-10  1.0000E-10  1.0000E-10  2.0000E-10  5.0000E-10   0.000    
  10    0.000      5.0000E-10  5.0000E-10  2.0000E-10  2.0000E-10  1.0000E-10  1.0000E-10  2.0000E-10  5.0000E-10  8.0000E-10
  11    0.000      1.0000E-10  1.0000E-10  1.0000E-10  1.0000E-10  1.0000E-10  1.0000E-10  2.0000E-10  5.0000E-10   0.000    
  12   1.0000E-10  1.0000E-10  1.0000E-10  1.0000E-10  1.0000E-10  1.0000E-10  1.0000E-10  1.0000E-10  2.0000E-10   0.000    
  13   1.0000E-10  1.0000E-10  2.0000E-10  2.0000E-10  2.0000E-10  2.0000E-10  2.0000E-10  1.0000E-10  1.0000E-10   0.000    
  14    0.000      2.0000E-10  5.0000E-10  5.0000E-10  5.0000E-10  5.0000E-10  5.0000E-10  2.0000E-10  1.0000E-10   0.000    
  15    0.000       0.000      8.0000E-10  8.0000E-10  8.0000E-10  8.0000E-10   0.000       0.000       0.000       0.000    

                  ET RATE =  5.000000E-08

 USING ET EXTINCTION DEPTH FROM PREVIOUS STRESS PERIOD. CURRENT PERIOD IS:      18

 USING EXTINCTION WATER CONTENT FROM PREVIOUS STRESS PERIOD. CURRENT PERIOD IS:      18

 USING AIR ENTRY PRESSURE FROM PREVIOUS STRESS PERIOD. CURRENT PERIOD IS:      18

 USING ROOT PRESSURE HEAD FROM PREVIOUS STRESS PERIOD. CURRENT PERIOD IS:      18

 USING ROOT ACTIVITY FROM PREVIOUS STRESS PERIOD. CURRENT PERIOD IS:      18

 PROCESSING AG STRESS PERIOD DATA

 READING AG STRESS PERIOD DATA

 READING IRRIGATION WELL

 END PROCESSING AG STRESS PERIOD DATA OPTIONS
 
 SOLVING FOR HEAD 
                                                   Max.-Head-Change                         Max.-Flux-Residual
  Residual-Control   Outer-Iter.   Inner-Iter.     Column Row Layer    Maximum-Head-Change  Column Row Layer    Maximum-Flux-Residual          L2-NORM 
          0                 1           2             4    7     1      -0.1437779687E-01       4    7    1        -0.7529437541E+00      0.1926195182E+01
          0                 2           2             4    7     1       0.1398566253E-02       4    7    1         0.7529429551E-01      0.1921160908E+00
          0                 3           1             4    7     1      -0.9523718917E-04       4    7    1        -0.5270603712E-02      0.1340234893E-01

    ------------------------------------------------
       NWT REQUIRED            3 OUTER ITERATIONS 
       AND A TOTAL OF          5 INNER ITERATIONS.
    ------------------------------------------------

 NO OUTPUT CONTROL FOR STRESS PERIOD   18   TIME STEP    1
 
 SOLVING FOR HEAD 
                                                   Max.-Head-Change                         Max.-Flux-Residual
  Residual-Control   Outer-Iter.   Inner-Iter.     Column Row Layer    Maximum-Head-Change  Column Row Layer    Maximum-Flux-Residual          L2-NORM 
          0                 1           2             4    7     1      -0.1425966495E-01       4    7    1        -0.7470614588E+00      0.1870799432E+01
          0                 2           2             4    7     1       0.1387075069E-02       4    7    1         0.7470605412E-01      0.1866637637E+00
          0                 3           1             4    7     1      -0.9445468426E-04       4    7    1        -0.5229426918E-02      0.1302868005E-01

    ------------------------------------------------
       NWT REQUIRED            3 OUTER ITERATIONS 
       AND A TOTAL OF          5 INNER ITERATIONS.
    ------------------------------------------------

 NO OUTPUT CONTROL FOR STRESS PERIOD   18   TIME STEP    2
 
 SOLVING FOR HEAD 
                                                   Max.-Head-Change                         Max.-Flux-Residual
  Residual-Control   Outer-Iter.   Inner-Iter.     Column Row Layer    Maximum-Head-Change  Column Row Layer    Maximum-Flux-Residual          L2-NORM 
          0                 1           2             4    7     1      -0.1413696661E-01       4    7    1        -0.7409141794E+00      0.1820723432E+01
          0                 2           2             4    7     1       0.1375139717E-02       4    7    1         0.7409131565E-01      0.1817287148E+00
          0                 3           1             4    7     1      -0.9364193274E-04       4    7    1        -0.5186395311E-02      0.1269021492E-01

    ------------------------------------------------
       NWT REQUIRED            3 OUTER ITERATIONS 
       AND A TOTAL OF          5 INNER ITERATIONS.
    ------------------------------------------------

 NO OUTPUT CONTROL FOR STRESS PERIOD   18   TIME STEP    3
 
 SOLVING FOR HEAD 
                                                   Max.-Head-Change                         Max.-Flux-Residual
  Residual-Control   Outer-Iter.   Inner-Iter.     Column Row Layer    Maximum-Head-Change  Column Row Layer    Maximum-Flux-Residual          L2-NORM 
          0                 1           2             4    7     1      -0.1401047294E-01       4    7    1        -0.7345448851E+00      0.1775107967E+01
          0                 2           2             4    7     1       0.1362835200E-02       4    7    1         0.7345437695E-01      0.1772259716E+00
          0                 3           1             4    7     1      -0.9280404214E-04       4    7    1        -0.5141809668E-02      0.1237973152E-01

    ------------------------------------------------
       NWT REQUIRED            3 OUTER ITERATIONS 
       AND A TOTAL OF          5 INNER ITERATIONS.
    ------------------------------------------------

 NO OUTPUT CONTROL FOR STRESS PERIOD   18   TIME STEP    4
 
 SOLVING FOR HEAD 
                                                   Max.-Head-Change                         Max.-Flux-Residual
  Residual-Control   Outer-Iter.   Inner-Iter.     Column Row Layer    Maximum-Head-Change  Column Row Layer    Maximum-Flux-Residual          L2-NORM 
          0                 1           2             4    7     1      -0.1388037237E-01       4    7    1        -0.7279640705E+00      0.1733259363E+01
          0                 2           2             4    7     1       0.1350126532E-02       4    7    1         0.7279628739E-01      0.1729812767E+00
          0                 3           1             4    7     1      -0.9193862988E-04       4    7    1        -0.5095743466E-02      0.1208732225E-01

    ------------------------------------------------
       NWT REQUIRED            3 OUTER ITERATIONS 
       AND A TOTAL OF          5 INNER ITERATIONS.
    ------------------------------------------------

 NO OUTPUT CONTROL FOR STRESS PERIOD   18   TIME STEP    5
 
 SOLVING FOR HEAD 
                                                   Max.-Head-Change                         Max.-Flux-Residual
  Residual-Control   Outer-Iter.   Inner-Iter.     Column Row Layer    Maximum-Head-Change  Column Row Layer    Maximum-Flux-Residual          L2-NORM 
          0                 1           2             4    7     1      -0.1374759616E-01       4    7    1        -0.7212138240E+00      0.1694705758E+01
          0                 2           2             4    7     1       0.1337264278E-02       4    7    1         0.7212125601E-01      0.1692748294E+00
          0                 3           1             4    7     1      -0.9106275878E-04       4    7    1        -0.5048491301E-02      0.1183133284E-01

    ------------------------------------------------
       NWT REQUIRED            3 OUTER ITERATIONS 
       AND A TOTAL OF          5 INNER ITERATIONS.
    ------------------------------------------------

 NO OUTPUT CONTROL FOR STRESS PERIOD   18   TIME STEP    6
 
 SOLVING FOR HEAD 
                                                   Max.-Head-Change                         Max.-Flux-Residual
  Residual-Control   Outer-Iter.   Inner-Iter.     Column Row Layer    Maximum-Head-Change  Column Row Layer    Maximum-Flux-Residual          L2-NORM 
          0                 1           2             4    7     1      -0.1361223331E-01       4    7    1        -0.7143118168E+00      0.1658999865E+01
          0                 2           2             4    7     1       0.1324097080E-02       4    7    1         0.7143104939E-01      0.1657373918E+00
          0                 3           1             4    7     1      -0.9016612233E-04       4    7    1        -0.5000176870E-02      0.1158679552E-01

    ------------------------------------------------
       NWT REQUIRED            3 OUTER ITERATIONS 
       AND A TOTAL OF          5 INNER ITERATIONS.
    ------------------------------------------------

 NO OUTPUT CONTROL FOR STRESS PERIOD   18   TIME STEP    7
 
 SOLVING FOR HEAD 
                                                   Max.-Head-Change                         Max.-Flux-Residual
  Residual-Control   Outer-Iter.   Inner-Iter.     Column Row Layer    Maximum-Head-Change  Column Row Layer    Maximum-Flux-Residual          L2-NORM 
          0                 1           2             4    7     1      -0.1347470084E-01       4    7    1        -0.7072785350E+00      0.1625655181E+01
          0                 2           2             4    7     1       0.1310718848E-02       4    7    1         0.7072771616E-01      0.1624301573E+00
          0                 3           1             4    7     1      -0.8925511543E-04       4    7    1        -0.4950943578E-02      0.1135805882E-01

    ------------------------------------------------
       NWT REQUIRED            3 OUTER ITERATIONS 
       AND A TOTAL OF          5 INNER ITERATIONS.
    ------------------------------------------------

 NO OUTPUT CONTROL FOR STRESS PERIOD   18   TIME STEP    8
 
 SOLVING FOR HEAD 
                                                   Max.-Head-Change                         Max.-Flux-Residual
  Residual-Control   Outer-Iter.   Inner-Iter.     Column Row Layer    Maximum-Head-Change  Column Row Layer    Maximum-Flux-Residual          L2-NORM 
          0                 1           2             4    7     1      -0.1333534927E-01       4    7    1        -0.7001327653E+00      0.1594385626E+01
          0                 2           2             4    7     1       0.1297163681E-02       4    7    1         0.7001313497E-01      0.1593253480E+00
          0                 3           1             4    7     1      -0.8833205925E-04       4    7    1        -0.4900922916E-02      0.1114248600E-01

    ------------------------------------------------
       NWT REQUIRED            3 OUTER ITERATIONS 
       AND A TOTAL OF          5 INNER ITERATIONS.
    ------------------------------------------------

 NO OUTPUT CONTROL FOR STRESS PERIOD   18   TIME STEP    9
 
 SOLVING FOR HEAD 
                                                   Max.-Head-Change                         Max.-Flux-Residual
  Residual-Control   Outer-Iter.   Inner-Iter.     Column Row Layer    Maximum-Head-Change  Column Row Layer    Maximum-Flux-Residual          L2-NORM 
          0                 1           2             4    7     1      -0.1319435960E-01       4    7    1        -0.6928853134E+00      0.1564917423E+01
          0                 2           2             4    7     1       0.1283449182E-02       4    7    1         0.6928838628E-01      0.1563973574E+00
          0                 3           1             4    7     1      -0.8739815351E-04       4    7    1        -0.4850190501E-02      0.1093909332E-01

    ------------------------------------------------
       NWT REQUIRED            3 OUTER ITERATIONS 
       AND A TOTAL OF          5 INNER ITERATIONS.
    ------------------------------------------------

 NO OUTPUT CONTROL FOR STRESS PERIOD   18   TIME STEP   10
 
 SOLVING FOR HEAD 
                                                   Max.-Head-Change                         Max.-Flux-Residual
  Residual-Control   Outer-Iter.   Inner-Iter.     Column Row Layer    Maximum-Head-Change  Column Row Layer    Maximum-Flux-Residual          L2-NORM 
          0                 1           2             4    7     1      -0.1305230888E-01       4    7    1        -0.6855676720E+00      0.1537059097E+01
          0                 2           2             4    7     1       0.1269631482E-02       4    7    1         0.6855661928E-01      0.1536265824E+00
          0                 3           1             4    7     1      -0.8645721963E-04       4    7    1        -0.4798966833E-02      0.1074667590E-01

    ------------------------------------------------
       NWT REQUIRED            3 OUTER ITERATIONS 
       AND A TOTAL OF          5 INNER ITERATIONS.
    ------------------------------------------------

 NO OUTPUT CONTROL FOR STRESS PERIOD   18   TIME STEP   11
 
 SOLVING FOR HEAD 
                                                   Max.-Head-Change                         Max.-Flux-Residual
  Residual-Control   Outer-Iter.   Inner-Iter.     Column Row Layer    Maximum-Head-Change  Column Row Layer    Maximum-Flux-Residual          L2-NORM 
          0                 1           2             4    7     1      -0.1290919495E-01       4    7    1        -0.6781802819E+00      0.1510622698E+01
          0                 2           2             4    7     1       0.1255710368E-02       4    7    1         0.6781787802E-01      0.1509955284E+00
          0                 3           1             4    7     1      -0.8550924365E-04       4    7    1        -0.4747254929E-02      0.1056343194E-01

    ------------------------------------------------
       NWT REQUIRED            3 OUTER ITERATIONS 
       AND A TOTAL OF          5 INNER ITERATIONS.
    ------------------------------------------------

 NO OUTPUT CONTROL FOR STRESS PERIOD   18   TIME STEP   12
 
 SOLVING FOR HEAD 
                                                   Max.-Head-Change                         Max.-Flux-Residual
  Residual-Control   Outer-Iter.   Inner-Iter.     Column Row Layer    Maximum-Head-Change  Column Row Layer    Maximum-Flux-Residual          L2-NORM 
          0                 1           2             4    7     1      -0.1276554597E-01       4    7    1        -0.6707525086E+00      0.1485475520E+01
          0                 2           2             4    7     1       0.1241737217E-02       4    7    1         0.6707509899E-01      0.1484913679E+00
          0                 3           1             4    7     1      -0.8455772444E-04       4    7    1        -0.4695260401E-02      0.1038931849E-01

    ------------------------------------------------
       NWT REQUIRED            3 OUTER ITERATIONS 
       AND A TOTAL OF          5 INNER ITERATIONS.
    ------------------------------------------------

 NO OUTPUT CONTROL FOR STRESS PERIOD   18   TIME STEP   13
 
 SOLVING FOR HEAD 
                                                   Max.-Head-Change                         Max.-Flux-Residual
  Residual-Control   Outer-Iter.   Inner-Iter.     Column Row Layer    Maximum-Head-Change  Column Row Layer    Maximum-Flux-Residual          L2-NORM 
          0                 1           2             4    7     1      -0.1262132656E-01       4    7    1        -0.6632822599E+00      0.1461494315E+01
          0                 2           2             4    7     1       0.1227708585E-02       4    7    1         0.6632807292E-01      0.1461019266E+00
          0                 3           1             4    7     1      -0.8360242639E-04       4    7    1        -0.4642968555E-02      0.1022282627E-01

    ------------------------------------------------
       NWT REQUIRED            3 OUTER ITERATIONS 
       AND A TOTAL OF          5 INNER ITERATIONS.
    ------------------------------------------------

 NO OUTPUT CONTROL FOR STRESS PERIOD   18   TIME STEP   14
 
 SOLVING FOR HEAD 
                                                   Max.-Head-Change                         Max.-Flux-Residual
  Residual-Control   Outer-Iter.   Inner-Iter.     Column Row Layer    Maximum-Head-Change  Column Row Layer    Maximum-Flux-Residual          L2-NORM 
          0                 1           2             4    7     1      -0.1247689886E-01       4    7    1        -0.6557898080E+00      0.1438572986E+01
          0                 2           2             4    7     1       0.1213659700E-02       4    7    1         0.6557882697E-01      0.1438171123E+00
          0                 3           1             4    7     1      -0.8264575007E-04       4    7    1        -0.4590521330E-02      0.1006376476E-01

    ------------------------------------------------
       NWT REQUIRED            3 OUTER ITERATIONS 
       AND A TOTAL OF          5 INNER ITERATIONS.
    ------------------------------------------------

 NO OUTPUT CONTROL FOR STRESS PERIOD   18   TIME STEP   15
 
 SOLVING FOR HEAD 
                                                   Max.-Head-Change                         Max.-Flux-Residual
  Residual-Control   Outer-Iter.   Inner-Iter.     Column Row Layer    Maximum-Head-Change  Column Row Layer    Maximum-Flux-Residual          L2-NORM 
          0                 1           2             4    7     1      -0.1233246379E-01       4    7    1        -0.6482865612E+00      0.1416627627E+01
          0                 2           2             4    7     1       0.1199610103E-02       4    7    1         0.6482850192E-01      0.1416286055E+00
          0                 3           1             4    7     1      -0.8168902452E-04       4    7    1        -0.4537998556E-02      0.9910875472E-02

    ------------------------------------------------
       NWT REQUIRED            3 OUTER ITERATIONS 
       AND A TOTAL OF          5 INNER ITERATIONS.
    ------------------------------------------------

 NO OUTPUT CONTROL FOR STRESS PERIOD   18   TIME STEP   16
 
 SOLVING FOR HEAD 
                                                   Max.-Head-Change                         Max.-Flux-Residual
  Residual-Control   Outer-Iter.   Inner-Iter.     Column Row Layer    Maximum-Head-Change  Column Row Layer    Maximum-Flux-Residual          L2-NORM 
          0                 1           2             4    7     1      -0.1218820335E-01       4    7    1        -0.6407829355E+00      0.1395576194E+01
          0                 2           2             4    7     1       0.1185577499E-02       4    7    1         0.6407813939E-01      0.1395285056E+00
          0                 3           1             4    7     1      -0.8073345642E-04       4    7    1        -0.4485473158E-02      0.9764314531E-02

    ------------------------------------------------
       NWT REQUIRED            3 OUTER ITERATIONS 
       AND A TOTAL OF          5 INNER ITERATIONS.
    ------------------------------------------------

 NO OUTPUT CONTROL FOR STRESS PERIOD   18   TIME STEP   17
 
 SOLVING FOR HEAD 
                                                   Max.-Head-Change                         Max.-Flux-Residual
  Residual-Control   Outer-Iter.   Inner-Iter.     Column Row Layer    Maximum-Head-Change  Column Row Layer    Maximum-Flux-Residual          L2-NORM 
          0                 1           2             4    7     1      -0.1204415430E-01       4    7    1        -0.6332810001E+00      0.1375347372E+01
          0                 2           2             4    7     1       0.1171565461E-02       4    7    1         0.6332794619E-01      0.1375098725E+00
          0                 3           1             4    7     1      -0.7977928825E-04       4    7    1        -0.4432959607E-02      0.9623469626E-02

    ------------------------------------------------
       NWT REQUIRED            3 OUTER ITERATIONS 
       AND A TOTAL OF          5 INNER ITERATIONS.
    ------------------------------------------------

 NO OUTPUT CONTROL FOR STRESS PERIOD   18   TIME STEP   18
 
 SOLVING FOR HEAD 
                                                   Max.-Head-Change                         Max.-Flux-Residual
  Residual-Control   Outer-Iter.   Inner-Iter.     Column Row Layer    Maximum-Head-Change  Column Row Layer    Maximum-Flux-Residual          L2-NORM 
          0                 1           2             4    7     1      -0.1190074967E-01       4    7    1        -0.6258047649E+00      0.1355900457E+01
          0                 2           2             4    7     1       0.1157616112E-02       4    7    1         0.6258032328E-01      0.1355686651E+00
          0                 3           1             4    7     1      -0.7882938942E-04       4    7    1        -0.4380625986E-02      0.9487858220E-02

    ------------------------------------------------
       NWT REQUIRED            3 OUTER ITERATIONS 
       AND A TOTAL OF          5 INNER ITERATIONS.
    ------------------------------------------------

 NO OUTPUT CONTROL FOR STRESS PERIOD   18   TIME STEP   19
 
 SOLVING FOR HEAD 
                                                   Max.-Head-Change                         Max.-Flux-Residual
  Residual-Control   Outer-Iter.   Inner-Iter.     Column Row Layer    Maximum-Head-Change  Column Row Layer    Maximum-Flux-Residual          L2-NORM 
          0                 1           2             4    7     1      -0.1175785052E-01       4    7    1        -0.6183472096E+00      0.1337160795E+01
          0                 2           2             4    7     1       0.1143715936E-02       4    7    1         0.6183456864E-01      0.1336977644E+00
          0                 3           1             4    7     1      -0.7788283869E-04       4    7    1        -0.4328423120E-02      0.9357248760E-02

    ------------------------------------------------
       NWT REQUIRED            3 OUTER ITERATIONS 
       AND A TOTAL OF          5 INNER ITERATIONS.
    ------------------------------------------------

 NO OUTPUT CONTROL FOR STRESS PERIOD   18   TIME STEP   20
 
 SOLVING FOR HEAD 
                                                   Max.-Head-Change                         Max.-Flux-Residual
  Residual-Control   Outer-Iter.   Inner-Iter.     Column Row Layer    Maximum-Head-Change  Column Row Layer    Maximum-Flux-Residual          L2-NORM 
          0                 1           2             4    7     1      -0.1161573111E-01       4    7    1        -0.6109232339E+00      0.1319112781E+01
          0                 2           2             4    7     1       0.1129891611E-02       4    7    1         0.6109217220E-01      0.1318954879E+00
          0                 3           1             4    7     1      -0.7694145324E-04       4    7    1        -0.4276455330E-02      0.9231258118E-02

    ------------------------------------------------
       NWT REQUIRED            3 OUTER ITERATIONS 
       AND A TOTAL OF          5 INNER ITERATIONS.
    ------------------------------------------------

 NO OUTPUT CONTROL FOR STRESS PERIOD   18   TIME STEP   21
 
 SOLVING FOR HEAD 
                                                   Max.-Head-Change                         Max.-Flux-Residual
  Residual-Control   Outer-Iter.   Inner-Iter.     Column Row Layer    Maximum-Head-Change  Column Row Layer    Maximum-Flux-Residual          L2-NORM 
          0                 1           2             4    7     1      -0.1147451477E-01       4    7    1        -0.6035396902E+00      0.1301699937E+01
          0                 2           2             4    7     1       0.1116155134E-02       4    7    1         0.6035381917E-01      0.1301562457E+00
          0                 3           1             4    7     1      -0.7600604994E-04       4    7    1        -0.4224770573E-02      0.9109686878E-02

    ------------------------------------------------
       NWT REQUIRED            3 OUTER ITERATIONS 
       AND A TOTAL OF          5 INNER ITERATIONS.
    ------------------------------------------------

 NO OUTPUT CONTROL FOR STRESS PERIOD   18   TIME STEP   22
 
 SOLVING FOR HEAD 
                                                   Max.-Head-Change                         Max.-Flux-Residual
  Residual-Control   Outer-Iter.   Inner-Iter.     Column Row Layer    Maximum-Head-Change  Column Row Layer    Maximum-Flux-Residual          L2-NORM 
          0                 1           2             4    7     1      -0.1133430221E-01       4    7    1        -0.5962029733E+00      0.1284888982E+01
          0                 2           2             4    7     1       0.1102516299E-02       4    7    1         0.5962014897E-01      0.1284771206E+00
          0                 3           1             4    7     1      -0.7507729574E-04       4    7    1        -0.4173413631E-02      0.8992322792E-02

    ------------------------------------------------
       NWT REQUIRED            3 OUTER ITERATIONS 
       AND A TOTAL OF          5 INNER ITERATIONS.
    ------------------------------------------------

 NO OUTPUT CONTROL FOR STRESS PERIOD   18   TIME STEP   23
 
 SOLVING FOR HEAD 
                                                   Max.-Head-Change                         Max.-Flux-Residual
  Residual-Control   Outer-Iter.   Inner-Iter.     Column Row Layer    Maximum-Head-Change  Column Row Layer    Maximum-Flux-Residual          L2-NORM 
          0                 1           2             4    7     1      -0.1119519125E-01       4    7    1        -0.5889183036E+00      0.1268643309E+01
          0                 2           2             4    7     1       0.1088984622E-02       4    7    1         0.5889168368E-01      0.1268539581E+00
          0                 3           1             4    7     1      -0.7415583865E-04       4    7    1        -0.4122421042E-02      0.8878854046E-02

    ------------------------------------------------
       NWT REQUIRED            3 OUTER ITERATIONS 
       AND A TOTAL OF          5 INNER ITERATIONS.
    ------------------------------------------------

 NO OUTPUT CONTROL FOR STRESS PERIOD   18   TIME STEP   24
 
 SOLVING FOR HEAD 
                                                   Max.-Head-Change                         Max.-Flux-Residual
  Residual-Control   Outer-Iter.   Inner-Iter.     Column Row Layer    Maximum-Head-Change  Column Row Layer    Maximum-Flux-Residual          L2-NORM 
          0                 1           2             4    7     1      -0.1105727100E-01       4    7    1        -0.5816907536E+00      0.1252937908E+01
          0                 2           2             4    7     1       0.1075568770E-02       4    7    1         0.5816893046E-01      0.1252847984E+00
          0                 3           1             4    7     1      -0.7324226858E-04       4    7    1        -0.4071828260E-02      0.8769126800E-02

    ------------------------------------------------
       NWT REQUIRED            3 OUTER ITERATIONS 
       AND A TOTAL OF          5 INNER ITERATIONS.
    ------------------------------------------------

 NO OUTPUT CONTROL FOR STRESS PERIOD   18   TIME STEP   25
 
 SOLVING FOR HEAD 
                                                   Max.-Head-Change                         Max.-Flux-Residual
  Residual-Control   Outer-Iter.   Inner-Iter.     Column Row Layer    Maximum-Head-Change  Column Row Layer    Maximum-Flux-Residual          L2-NORM 
          0                 1           2             4    7     1      -0.1092048330E-01       4    7    1        -0.5745175769E+00      0.1237737927E+01
          0                 2           2             4    7     1       0.1062263087E-02       4    7    1         0.5745161473E-01      0.1237658430E+00
          0                 3           1             4    7     1      -0.7233620034E-04       4    7    1        -0.4021616114E-02      0.8662918742E-02

    ------------------------------------------------
       NWT REQUIRED            3 OUTER ITERATIONS 
       AND A TOTAL OF          5 INNER ITERATIONS.
    ------------------------------------------------

 NO OUTPUT CONTROL FOR STRESS PERIOD   18   TIME STEP   26
 
 SOLVING FOR HEAD 
                                                   Max.-Head-Change                         Max.-Flux-Residual
  Residual-Control   Outer-Iter.   Inner-Iter.     Column Row Layer    Maximum-Head-Change  Column Row Layer    Maximum-Flux-Residual          L2-NORM 
          0                 1           2             4    7     1      -0.1078517251E-01       4    7    1        -0.5674178577E+00      0.1223030938E+01
          0                 2           2             4    7     1       0.1049101068E-02       4    7    1         0.5674164483E-01      0.1222961474E+00
          0                 3           1             4    7     1      -0.7143991547E-04       4    7    1        -0.3971918197E-02      0.8560091731E-02

    ------------------------------------------------
       NWT REQUIRED            3 OUTER ITERATIONS 
       AND A TOTAL OF          5 INNER ITERATIONS.
    ------------------------------------------------

 NO OUTPUT CONTROL FOR STRESS PERIOD   18   TIME STEP   27
 
 SOLVING FOR HEAD 
                                                   Max.-Head-Change                         Max.-Flux-Residual
  Residual-Control   Outer-Iter.   Inner-Iter.     Column Row Layer    Maximum-Head-Change  Column Row Layer    Maximum-Flux-Residual          L2-NORM 
          0                 1           2             4    7     1      -0.1065125995E-01       4    7    1        -0.5603873500E+00      0.1208792599E+01
          0                 2           2             4    7     1       0.1036075059E-02       4    7    1         0.5603859618E-01      0.1208731260E+00
          0                 3           1             4    7     1      -0.7055289209E-04       4    7    1        -0.3922704731E-02      0.8460589932E-02

    ------------------------------------------------
       NWT REQUIRED            3 OUTER ITERATIONS 
       AND A TOTAL OF          5 INNER ITERATIONS.
    ------------------------------------------------

 NO OUTPUT CONTROL FOR STRESS PERIOD   18   TIME STEP   28
 
 SOLVING FOR HEAD 
                                                   Max.-Head-Change                         Max.-Flux-Residual
  Residual-Control   Outer-Iter.   Inner-Iter.     Column Row Layer    Maximum-Head-Change  Column Row Layer    Maximum-Flux-Residual          L2-NORM 
          0                 1           2             4    7     1      -0.1051879970E-01       4    7    1        -0.5534293418E+00      0.1194994804E+01
          0                 2           2             4    7     1       0.1023190323E-02       4    7    1         0.5534279752E-01      0.1194941306E+00
          0                 3           1             4    7     1      -0.6967548937E-04       4    7    1        -0.3873998803E-02      0.8364161243E-02

    ------------------------------------------------
       NWT REQUIRED            3 OUTER ITERATIONS 
       AND A TOTAL OF          5 INNER ITERATIONS.
    ------------------------------------------------

 NO OUTPUT CONTROL FOR STRESS PERIOD   18   TIME STEP   29
 
 SOLVING FOR HEAD 
                                                   Max.-Head-Change                         Max.-Flux-Residual
  Residual-Control   Outer-Iter.   Inner-Iter.     Column Row Layer    Maximum-Head-Change  Column Row Layer    Maximum-Flux-Residual          L2-NORM 
          0                 1           2             4    7     1      -0.1038770159E-01       4    7    1        -0.5465392707E+00      0.1181614710E+01
          0                 2           2             4    7     1       0.1010438085E-02       4    7    1         0.5465379266E-01      0.1181566444E+00
          0                 3           1             4    7     1      -0.6880710898E-04       4    7    1        -0.3825768419E-02      0.8270486012E-02

    ------------------------------------------------
       NWT REQUIRED            3 OUTER ITERATIONS 
       AND A TOTAL OF          5 INNER ITERATIONS.
    ------------------------------------------------

 NO OUTPUT CONTROL FOR STRESS PERIOD   18   TIME STEP   30



 STREAM LISTING     PERIOD     18   STEP       30

 LAYER ROW COL. STREAM  RCH.  FLOW INTO     FLOW TO   FLOW OUT OF   OVRLND.     DIRECT     STREAM       STREAM     STREAM     STREAM   STREAMBED  STREAMBED
                SEG.NO.  NO.  STRM. RCH.    AQUIFER    STRM. RCH.    RUNOFF     PRECIP       ET          HEAD       DEPTH      WIDTH   CONDCTNC.   GRADIENT

   1    1    1     1     1    6.3001E+01  3.8237E-01   6.2619E+01  0.000E+00  0.000E+00  0.000E+00  1.09461E+03  1.562E+00  1.863E+01  8.382E-02  1.521E+00
   1    2    2     1     2    6.2619E+01  5.9218E-01   6.2026E+01  0.000E+00  0.000E+00  0.000E+00  1.08961E+03  1.556E+00  1.857E+01  1.300E-01  1.519E+00
   1    3    3     1     3    6.2026E+01  5.0506E-01   6.1521E+01  0.000E+00  0.000E+00  0.000E+00  1.08397E+03  1.549E+00  1.850E+01  1.110E-01  1.516E+00
   1    3    4     1     4    6.1521E+01  4.6511E-01   6.1056E+01  0.000E+00  0.000E+00  0.000E+00  1.07895E+03  1.543E+00  1.845E+01  1.024E-01  1.514E+00
   1    4    5     2     1    5.9056E+01  3.9145E-01   5.8665E+01  0.000E+00  0.000E+00  0.000E+00  1.07395E+03  2.019E+00  1.200E+01  7.800E-02  1.673E+00
   1    5    6     2     2    5.8665E+01  3.0069E-01   5.8364E+01  0.000E+00  0.000E+00  0.000E+00  1.06852E+03  2.011E+00  1.200E+01  6.000E-02  1.670E+00
   1    6    6     2     3    5.8364E+01  3.0031E-01   5.8064E+01  0.000E+00  0.000E+00  0.000E+00  1.06380E+03  2.005E+00  1.200E+01  6.000E-02  1.668E+00
   1    7    6     2     4    5.8064E+01  2.9994E-01   5.7764E+01  0.000E+00  0.000E+00  0.000E+00  1.05907E+03  1.999E+00  1.200E+01  6.000E-02  1.666E+00
   1    8    6     2     5    5.7764E+01  2.9957E-01   5.7464E+01  0.000E+00  0.000E+00  0.000E+00  1.05435E+03  1.993E+00  1.200E+01  6.000E-02  1.664E+00
   1    3    5     3     1    2.0000E+00  2.8252E-01   1.7175E+00  0.000E+00  0.000E+00  0.000E+00  1.07555E+03  1.909E+00  9.636E+00  7.227E-02  1.955E+00
   1    3    6     3     2    1.7175E+00  2.4905E-01   1.4684E+00  0.000E+00  0.000E+00  0.000E+00  1.07264E+03  1.727E+00  8.909E+00  6.682E-02  1.864E+00
   1    3    7     3     3    1.4684E+00  1.9718E-01   1.2712E+00  0.000E+00  0.000E+00  0.000E+00  1.06987E+03  1.555E+00  8.218E+00  5.547E-02  1.777E+00
   1    4    8     3     4    1.2712E+00  2.2567E-01   1.0456E+00  0.000E+00  0.000E+00  0.000E+00  1.06682E+03  1.364E+00  7.455E+00  6.709E-02  1.682E+00
   1    5    8     3     5    1.0456E+00  1.5790E-01   8.8768E-01  0.000E+00  0.000E+00  0.000E+00  1.06362E+03  1.164E+00  6.655E+00  4.991E-02  1.582E+00
   1    6    8     3     6    8.8768E-01  5.5980E-02   8.3170E-01  0.000E+00  0.000E+00  0.000E+00  1.06158E+03  1.036E+00  6.145E+00  1.844E-02  1.518E+00
   1    5   10     4     1    1.0000E+01  9.0919E-02   9.9091E+00  0.000E+00  0.000E+00  0.000E+00  1.07836E+03  6.368E-01  1.000E+01  2.500E-02  1.212E+00
   1    5    9     4     2    9.9091E+00  1.8158E-01   9.7275E+00  0.000E+00  0.000E+00  0.000E+00  1.07154E+03  6.315E-01  1.000E+01  5.000E-02  1.211E+00
   1    6    8     4     3    9.7275E+00  1.2689E-01   9.6006E+00  0.000E+00  0.000E+00  0.000E+00  1.06381E+03  6.256E-01  1.000E+01  3.500E-02  1.209E+00
   1    6    8     5     1    1.0432E+01  2.2686E-01   1.0205E+01  0.000E+00  0.000E+00  0.000E+00  1.05868E+03  6.790E-01  1.542E+01  6.166E-02  1.226E+00
   1    7    7     5     2    1.0205E+01  2.7894E-01   9.9265E+00  0.000E+00  0.000E+00  0.000E+00  1.05417E+03  6.732E-01  1.519E+01  7.594E-02  1.224E+00
   1    8    7     5     3    9.9265E+00  1.9221E-01   9.7343E+00  0.000E+00  0.000E+00  0.000E+00  1.04992E+03  6.676E-01  1.497E+01  5.241E-02  1.223E+00
   1    8    6     5     4    9.7343E+00  1.3577E-01   9.5985E+00  0.000E+00  0.000E+00  0.000E+00  1.04691E+03  6.637E-01  1.482E+01  3.706E-02  1.221E+00
   1    9    6     6     1    6.7063E+01  3.1225E-01   6.6751E+01  0.000E+00  0.000E+00  0.000E+00  1.04493E+03  2.204E+00  1.200E+01  6.000E-02  1.735E+00
   1   10    7     6     2    6.6751E+01  3.1188E-01   6.6439E+01  0.000E+00  0.000E+00  0.000E+00  1.04038E+03  2.198E+00  1.200E+01  6.000E-02  1.733E+00
   1   11    7     6     3    6.6439E+01  3.1151E-01   6.6127E+01  0.000E+00  0.000E+00  0.000E+00  1.03583E+03  2.192E+00  1.200E+01  6.000E-02  1.731E+00
   1   12    7     6     4    6.6127E+01  3.1114E-01   6.5816E+01  0.000E+00  0.000E+00  0.000E+00  1.03128E+03  2.186E+00  1.200E+01  6.000E-02  1.729E+00
   1   13    7     6     5    6.5816E+01  2.3792E-02   6.5792E+01  0.000E+00  0.000E+00  0.000E+00  1.02809E+03  2.182E+00  1.200E+01  2.400E-02  3.304E-01
   1   14    9     7     1    1.5000E+02  1.3313E+00   1.4867E+02  0.000E+00  0.000E+00  0.000E+00  1.03987E+03  2.288E+00  5.529E+01  5.593E-01  7.934E-01
   1   13    8     7     2    1.4867E+02  1.8251E+00   1.4684E+02  0.000E+00  0.000E+00  0.000E+00  1.03478E+03  2.279E+00  5.526E+01  6.148E-01  9.896E-01
   1   13    7     7     3    1.4684E+02  1.4463E+00   1.4540E+02  0.000E+00  0.000E+00  0.000E+00  1.02969E+03  2.271E+00  5.522E+01  5.585E-01  8.633E-01
   1   13    6     8     1    2.1119E+02  1.0640E+00   2.1013E+02  0.000E+00  0.000E+00  0.000E+00  1.02507E+03  3.199E+00  4.639E+01  4.727E-01  7.502E-01
   1   13    5     8     2    2.1013E+02  2.5599E-01   2.0987E+02  0.000E+00  0.000E+00  0.000E+00  1.01882E+03  3.196E+00  4.634E+01  4.722E-01  1.807E-01
   1   13    4     8     3    2.0987E+02 -2.1872E+00   2.1206E+02  0.000E+00  0.000E+00  0.000E+00  1.01258E+03  3.201E+00  4.642E+01  4.730E+00 -1.541E-01
   1   13    3     8     4    2.1206E+02 -3.4520E+00   2.1551E+02  0.000E+00  0.000E+00  0.000E+00  1.00634E+03  3.217E+00  4.665E+01  4.754E+00 -2.421E-01
   1   13    2     8     5    2.1551E+02 -2.5487E+00   2.1806E+02  0.000E+00  0.000E+00  0.000E+00  1.00011E+03  3.234E+00  4.689E+01  4.779E+00 -1.778E-01
   1   13    1     8     6    2.1806E+02 -2.0012E+00   2.2006E+02  0.000E+00  0.000E+00  0.000E+00  9.95122E+02  3.247E+00  4.708E+01  2.878E+00 -2.317E-01





UNSATURATED ZONE PACKAGE VOLUMETRIC BUDGET FOR  TIME STEP    30 STRESS PERIOD   18
  ------------------------------------------------------------------------------



     CUMULATIVE VOLUMES      L**3       RATES FOR THIS TIME STEP      L**3/T
     ------------------                 ------------------------

           IN:                                      IN:
           ---                                      ---
        INFILTRATION =   543235318.6862          INFILTRATION =           8.3175

          OUT:                                     OUT:
          ----                                     ----
              UZF ET =   471142898.6301                UZF ET =           8.3175
        UZF RECHARGE =    72022227.3421          UZF RECHARGE =       0.0000E+00

            IN - OUT =       70192.7140              IN - OUT =       0.0000E+00

          STORAGE:                                 STORAGE:
          --------                                 --------
      STORAGE CHANGE =       70185.5785        STORAGE CHANGE =       8.4621E-15

 PERCENT DISCREPANCY IS DIFFERENCE BETWEEN IN-OUT MINUS CHANGE IN STORAGE
 DIVIDED BY THE AVERAGE OF IN AND OUT TIMES 100

 PERCENT DISCREPANCY =           0.00     PERCENT DISCREPANCY =           0.00






1
  VOLUMETRIC BUDGET FOR AGRICULTURAL FIELDS AT  END OF TIME STEP   30, STRESS PERIOD  18
  ------------------------------------------------------------------------------

     CUMULATIVE VOLUMES      L**3       RATES FOR THIS TIME STEP      L**3/T
     ------------------                 ------------------------

           IN:                                      IN:
           ---                                      ---
               AG WELLS  =   505269888.0000                 AG WELLS  =           7.4700
      DIVERSION SEGMENTS =           0.0000        DIVERSION SEGMENTS =           0.0000
           GW IRRIGATION =           0.0000             GW IRRIGATION =           0.0000
           SW IRRIGATION =           0.0000             SW IRRIGATION =           0.0000
        SYSTEM LOSSES GW =           0.0000          SYSTEM LOSSES GW =           0.0000
        SYSTEM LOSSES SW =           0.0000          SYSTEM LOSSES SW =           0.0000

                TOTAL IN =   505269888.0000                  TOTAL IN =           7.4700

          OUT:                                     OUT:
          ----                                     ----
               AG WELLS  =           0.0000                 AG WELLS  =           0.0000
      DIVERSION SEGMENTS =           0.0000        DIVERSION SEGMENTS =           0.0000
           GW IRRIGATION =   505269888.0000             GW IRRIGATION =           7.4700
           SW IRRIGATION =           0.0000             SW IRRIGATION =           0.0000
        SYSTEM LOSSES GW =           0.0000          SYSTEM LOSSES GW =           0.0000
        SYSTEM LOSSES SW =           0.0000          SYSTEM LOSSES SW =           0.0000

               TOTAL OUT =   505269888.0000                 TOTAL OUT =           7.4700

                IN - OUT =           0.0000                  IN - OUT =           0.0000

     PERCENT DISCREPANCY =           0.00         PERCENT DISCREPANCY =           0.00



1
  VOLUMETRIC BUDGET FOR ENTIRE MODEL AT END OF TIME STEP   30, STRESS PERIOD  18
  ------------------------------------------------------------------------------

     CUMULATIVE VOLUMES      L**3       RATES FOR THIS TIME STEP      L**3/T
     ------------------                 ------------------------

           IN:                                      IN:
           ---                                      ---
             STORAGE     =   658901056.0000               STORAGE     =           5.4654
       CONSTANT HEAD     =           0.0000         CONSTANT HEAD     =           0.0000
     HEAD DEP BOUNDS     =    12785458.0000       HEAD DEP BOUNDS     =           0.2855
      STREAM LEAKAGE     =   562124800.0000        STREAM LEAKAGE     =          13.1314
        UZF RECHARGE     =    72022192.0000          UZF RECHARGE     =           0.0000
               GW ET     =           0.0000                 GW ET     =           0.0000
     SURFACE LEAKAGE     =           0.0000       SURFACE LEAKAGE     =           0.0000
           AG WELLS      =           0.0000             AG WELLS      =           0.0000

                TOTAL IN =  1305833472.0000                  TOTAL IN =          18.8823

          OUT:                                     OUT:
          ----                                     ----
             STORAGE     =   310561024.0000               STORAGE     =           0.6586
       CONSTANT HEAD     =           0.0000         CONSTANT HEAD     =           0.0000
     HEAD DEP BOUNDS     =    13199232.0000       HEAD DEP BOUNDS     =           0.2970
      STREAM LEAKAGE     =   461430208.0000        STREAM LEAKAGE     =          10.1891
        UZF RECHARGE     =           0.0000          UZF RECHARGE     =           0.0000
               GW ET     =    15368092.0000                 GW ET     =           0.2661
     SURFACE LEAKAGE     =           0.0000       SURFACE LEAKAGE     =           0.0000
           AG WELLS      =   505269888.0000             AG WELLS      =           7.4700

               TOTAL OUT =  1305828352.0000                 TOTAL OUT =          18.8809

                IN - OUT =        5120.0000                  IN - OUT =       1.3809E-03

     PERCENT DISCREPANCY =           0.00         PERCENT DISCREPANCY =           0.01






         TIME SUMMARY AT END OF TIME STEP   30 IN STRESS PERIOD   18
                    SECONDS     MINUTES      HOURS       DAYS        YEARS
                    -----------------------------------------------------------
   TIME STEP LENGTH  87667.      1461.1      24.352      1.0147     2.77799E-03
 STRESS PERIOD TIME 2.63000E+06  43833.      730.56      30.440     8.33397E-02
         TOTAL TIME 4.47965E+07 7.46608E+05  12443.      518.48      1.4195    
1
1
                            STRESS PERIOD NO.   19, LENGTH =   2630000.    
                            -----------------------------------------------

                              NUMBER OF TIME STEPS =    30

                               MULTIPLIER FOR DELT =     1.000

                            INITIAL TIME STEP SIZE =   87666.66    

 REUSING NON-PARAMETER GHB CELLS FROM LAST STRESS PERIOD

      2 GHB CELLS

 REUSING STREAM SEGMENT DATA FROM LAST STRESS PERIOD



            AREAL INFILTRATION RATE
 READING ON UNIT   19 WITH FORMAT: (FREE)              

            1           2           3           4           5           6           7           8           9          10
 ........................................................................................................................
   1   1.0000E-10  2.0000E-10   0.000       0.000       0.000       0.000       0.000       0.000       0.000       0.000    
   2   2.0000E-10  1.0000E-10  2.0000E-10   0.000       0.000      8.0000E-10  8.0000E-10  5.0000E-10   0.000       0.000    
   3    0.000      5.0000E-10  1.0000E-10  1.0000E-10  8.0000E-10  8.0000E-10  5.0000E-10  5.0000E-10   0.000       0.000    
   4   8.0000E-10  5.0000E-10  1.0000E-10  1.0000E-10  1.0000E-10  1.0000E-10  1.0000E-10  1.0000E-10  2.0000E-10   0.000    
   5   8.0000E-10  5.0000E-10  1.0000E-10  1.0000E-10  1.0000E-10  1.0000E-10  1.0000E-10  1.0000E-10  1.0000E-10  1.0000E-10
   6   8.0000E-10  5.0000E-10  5.0000E-10  2.0000E-10  2.0000E-10  1.0000E-10  1.0000E-10  1.0000E-10  1.0000E-10  5.0000E-10
   7   8.0000E-10  5.0000E-10  5.0000E-10  2.0000E-10  2.0000E-10  1.0000E-10  1.0000E-10  2.0000E-10  2.0000E-10   0.000    
   8    0.000      5.0000E-10  5.0000E-10  2.0000E-10  2.0000E-10  1.0000E-10  1.0000E-10  2.0000E-10  5.0000E-10   0.000    
   9    0.000      5.0000E-10  5.0000E-10  2.0000E-10  2.0000E-10  1.0000E-10  1.0000E-10  2.0000E-10  5.0000E-10   0.000    
  10    0.000      5.0000E-10  5.0000E-10  2.0000E-10  2.0000E-10  1.0000E-10  1.0000E-10  2.0000E-10  5.0000E-10  8.0000E-10
  11    0.000      1.0000E-10  1.0000E-10  1.0000E-10  1.0000E-10  1.0000E-10  1.0000E-10  2.0000E-10  5.0000E-10   0.000    
  12   1.0000E-10  1.0000E-10  1.0000E-10  1.0000E-10  1.0000E-10  1.0000E-10  1.0000E-10  1.0000E-10  2.0000E-10   0.000    
  13   1.0000E-10  1.0000E-10  2.0000E-10  2.0000E-10  2.0000E-10  2.0000E-10  2.0000E-10  1.0000E-10  1.0000E-10   0.000    
  14    0.000      2.0000E-10  5.0000E-10  5.0000E-10  5.0000E-10  5.0000E-10  5.0000E-10  2.0000E-10  1.0000E-10   0.000    
  15    0.000       0.000      8.0000E-10  8.0000E-10  8.0000E-10  8.0000E-10   0.000       0.000       0.000       0.000    

                  ET RATE =  1.500000E-07

 USING ET EXTINCTION DEPTH FROM PREVIOUS STRESS PERIOD. CURRENT PERIOD IS:      19

 USING EXTINCTION WATER CONTENT FROM PREVIOUS STRESS PERIOD. CURRENT PERIOD IS:      19

 USING AIR ENTRY PRESSURE FROM PREVIOUS STRESS PERIOD. CURRENT PERIOD IS:      19

 USING ROOT PRESSURE HEAD FROM PREVIOUS STRESS PERIOD. CURRENT PERIOD IS:      19

 USING ROOT ACTIVITY FROM PREVIOUS STRESS PERIOD. CURRENT PERIOD IS:      19

 PROCESSING AG STRESS PERIOD DATA

 READING AG STRESS PERIOD DATA

 READING IRRIGATION WELL

 END PROCESSING AG STRESS PERIOD DATA OPTIONS
 
 SOLVING FOR HEAD 
                                                   Max.-Head-Change                         Max.-Flux-Residual
  Residual-Control   Outer-Iter.   Inner-Iter.     Column Row Layer    Maximum-Head-Change  Column Row Layer    Maximum-Flux-Residual          L2-NORM 
          0                 1           2             4    7     1      -0.5814131027E-01       4    7    1        -0.3039734678E+01      0.7221217736E+01
          0                 2           2             4    7     1       0.5655531113E-02       4    7    1         0.3039714171E+00      0.7220217618E+00
          0                 3           2             4    7     1      -0.3851209811E-03       4    7    1        -0.2127802554E-01      0.5053332934E-01
          0                 4           1             4    7     1       0.1532432300E-04       4    7    1         0.8702723803E-03      0.2066363420E-02

    ------------------------------------------------
       NWT REQUIRED            4 OUTER ITERATIONS 
       AND A TOTAL OF          7 INNER ITERATIONS.
    ------------------------------------------------

 OUTPUT CONTROL FOR STRESS PERIOD   19   TIME STEP    1
    PRINT BUDGET
    SAVE BUDGET
 UBDSV1 SAVING "         STORAGE" ON UNIT 102 AT TIME STEP  1, STRESS PERIOD  19
 UBDSV2 SAVING "   CONSTANT HEAD" ON UNIT 102 AT TIME STEP  1, STRESS PERIOD  19
 UBDSV1 SAVING "FLOW RIGHT FACE " ON UNIT 102 AT TIME STEP  1, STRESS PERIOD  19
 UBDSV1 SAVING "FLOW FRONT FACE " ON UNIT 102 AT TIME STEP  1, STRESS PERIOD  19

  HEAD DEP BOUNDS   PERIOD   19   STEP     1
 BOUNDARY      1   LAYER   1   ROW    13   COL     1   RATE   -0.296985    
 BOUNDARY      2   LAYER   1   ROW    14   COL     9   RATE    0.285452    



 STREAM LISTING     PERIOD     19   STEP        1

 LAYER ROW COL. STREAM  RCH.  FLOW INTO     FLOW TO   FLOW OUT OF   OVRLND.     DIRECT     STREAM       STREAM     STREAM     STREAM   STREAMBED  STREAMBED
                SEG.NO.  NO.  STRM. RCH.    AQUIFER    STRM. RCH.    RUNOFF     PRECIP       ET          HEAD       DEPTH      WIDTH   CONDCTNC.   GRADIENT

   1    1    1     1     1    5.8202E+01  3.6567E-01   5.7837E+01  0.000E+00  0.000E+00  0.000E+00  1.09455E+03  1.503E+00  1.804E+01  8.120E-02  1.501E+00
   1    2    2     1     2    5.7837E+01  5.6626E-01   5.7270E+01  0.000E+00  0.000E+00  0.000E+00  1.08956E+03  1.498E+00  1.799E+01  1.259E-01  1.499E+00
   1    3    3     1     3    5.7270E+01  4.8288E-01   5.6788E+01  0.000E+00  0.000E+00  0.000E+00  1.08391E+03  1.491E+00  1.792E+01  1.075E-01  1.497E+00
   1    3    4     1     4    5.6788E+01  4.4463E-01   5.6343E+01  0.000E+00  0.000E+00  0.000E+00  1.07889E+03  1.485E+00  1.786E+01  9.913E-02  1.495E+00
   1    4    5     2     1    5.4343E+01  3.8376E-01   5.3959E+01  0.000E+00  0.000E+00  0.000E+00  1.07385E+03  1.920E+00  1.200E+01  7.800E-02  1.640E+00
   1    5    6     2     2    5.3959E+01  2.9477E-01   5.3664E+01  0.000E+00  0.000E+00  0.000E+00  1.06842E+03  1.913E+00  1.200E+01  6.000E-02  1.638E+00
   1    6    6     2     3    5.3664E+01  2.9439E-01   5.3370E+01  0.000E+00  0.000E+00  0.000E+00  1.06370E+03  1.907E+00  1.200E+01  6.000E-02  1.636E+00
   1    7    6     2     4    5.3370E+01  2.9401E-01   5.3076E+01  0.000E+00  0.000E+00  0.000E+00  1.05898E+03  1.900E+00  1.200E+01  6.000E-02  1.633E+00
   1    8    6     2     5    5.3076E+01  2.9364E-01   5.2782E+01  0.000E+00  0.000E+00  0.000E+00  1.05425E+03  1.894E+00  1.200E+01  6.000E-02  1.631E+00
   1    3    5     3     1    2.0000E+00  2.8252E-01   1.7175E+00  0.000E+00  0.000E+00  0.000E+00  1.07555E+03  1.909E+00  9.636E+00  7.227E-02  1.955E+00
   1    3    6     3     2    1.7175E+00  2.4905E-01   1.4684E+00  0.000E+00  0.000E+00  0.000E+00  1.07264E+03  1.727E+00  8.909E+00  6.682E-02  1.864E+00
   1    3    7     3     3    1.4684E+00  1.9718E-01   1.2712E+00  0.000E+00  0.000E+00  0.000E+00  1.06987E+03  1.555E+00  8.218E+00  5.547E-02  1.777E+00
   1    4    8     3     4    1.2712E+00  2.2567E-01   1.0456E+00  0.000E+00  0.000E+00  0.000E+00  1.06682E+03  1.364E+00  7.455E+00  6.709E-02  1.682E+00
   1    5    8     3     5    1.0456E+00  1.5790E-01   8.8768E-01  0.000E+00  0.000E+00  0.000E+00  1.06362E+03  1.164E+00  6.655E+00  4.991E-02  1.582E+00
   1    6    8     3     6    8.8768E-01  5.5980E-02   8.3170E-01  0.000E+00  0.000E+00  0.000E+00  1.06158E+03  1.036E+00  6.145E+00  1.844E-02  1.518E+00
   1    5   10     4     1    1.0000E+01  9.0919E-02   9.9091E+00  0.000E+00  0.000E+00  0.000E+00  1.07836E+03  6.368E-01  1.000E+01  2.500E-02  1.212E+00
   1    5    9     4     2    9.9091E+00  1.8158E-01   9.7275E+00  0.000E+00  0.000E+00  0.000E+00  1.07154E+03  6.315E-01  1.000E+01  5.000E-02  1.211E+00
   1    6    8     4     3    9.7275E+00  1.2689E-01   9.6006E+00  0.000E+00  0.000E+00  0.000E+00  1.06381E+03  6.256E-01  1.000E+01  3.500E-02  1.209E+00
   1    6    8     5     1    1.0432E+01  2.2686E-01   1.0205E+01  0.000E+00  0.000E+00  0.000E+00  1.05868E+03  6.790E-01  1.542E+01  6.166E-02  1.226E+00
   1    7    7     5     2    1.0205E+01  2.7894E-01   9.9265E+00  0.000E+00  0.000E+00  0.000E+00  1.05417E+03  6.732E-01  1.519E+01  7.594E-02  1.224E+00
   1    8    7     5     3    9.9265E+00  1.9221E-01   9.7343E+00  0.000E+00  0.000E+00  0.000E+00  1.04992E+03  6.676E-01  1.497E+01  5.241E-02  1.223E+00
   1    8    6     5     4    9.7343E+00  1.3577E-01   9.5985E+00  0.000E+00  0.000E+00  0.000E+00  1.04691E+03  6.637E-01  1.482E+01  3.706E-02  1.221E+00
   1    9    6     6     1    6.2381E+01  3.0662E-01   6.2074E+01  0.000E+00  0.000E+00  0.000E+00  1.04484E+03  2.110E+00  1.200E+01  6.000E-02  1.703E+00
   1   10    7     6     2    6.2074E+01  3.0625E-01   6.1768E+01  0.000E+00  0.000E+00  0.000E+00  1.04029E+03  2.104E+00  1.200E+01  6.000E-02  1.701E+00
   1   11    7     6     3    6.1768E+01  3.0587E-01   6.1462E+01  0.000E+00  0.000E+00  0.000E+00  1.03573E+03  2.098E+00  1.200E+01  6.000E-02  1.699E+00
   1   12    7     6     4    6.1462E+01  3.0550E-01   6.1157E+01  0.000E+00  0.000E+00  0.000E+00  1.03118E+03  2.092E+00  1.200E+01  6.000E-02  1.697E+00
   1   13    7     6     5    6.1157E+01  2.1543E-02   6.1135E+01  0.000E+00  0.000E+00  0.000E+00  1.02800E+03  2.088E+00  1.200E+01  2.400E-02  2.992E-01
   1   14    9     7     1    1.5000E+02  1.3313E+00   1.4867E+02  0.000E+00  0.000E+00  0.000E+00  1.03987E+03  2.288E+00  5.529E+01  5.593E-01  7.934E-01
   1   13    8     7     2    1.4867E+02  1.8252E+00   1.4684E+02  0.000E+00  0.000E+00  0.000E+00  1.03478E+03  2.279E+00  5.526E+01  6.148E-01  9.896E-01
   1   13    7     7     3    1.4684E+02  1.4465E+00   1.4540E+02  0.000E+00  0.000E+00  0.000E+00  1.02969E+03  2.271E+00  5.522E+01  5.585E-01  8.634E-01
   1   13    6     8     1    2.0653E+02  1.0430E+00   2.0549E+02  0.000E+00  0.000E+00  0.000E+00  1.02505E+03  3.173E+00  4.600E+01  4.688E-01  7.416E-01
   1   13    5     8     2    2.0549E+02  2.4176E-01   2.0525E+02  0.000E+00  0.000E+00  0.000E+00  1.01879E+03  3.169E+00  4.595E+01  4.683E-01  1.721E-01
   1   13    4     8     3    2.0525E+02 -2.2719E+00   2.0752E+02  0.000E+00  0.000E+00  0.000E+00  1.01255E+03  3.175E+00  4.604E+01  4.691E+00 -1.614E-01
   1   13    3     8     4    2.0752E+02 -3.5155E+00   2.1103E+02  0.000E+00  0.000E+00  0.000E+00  1.00632E+03  3.192E+00  4.628E+01  4.716E+00 -2.485E-01
   1   13    2     8     5    2.1103E+02 -2.6378E+00   2.1367E+02  0.000E+00  0.000E+00  0.000E+00  1.00008E+03  3.209E+00  4.653E+01  4.742E+00 -1.854E-01
   1   13    1     8     6    2.1367E+02 -2.0515E+00   2.1572E+02  0.000E+00  0.000E+00  0.000E+00  9.95097E+02  3.222E+00  4.672E+01  2.857E+00 -2.394E-01



 UBDSV3 SAVING "           GW ET" ON UNIT  61 AT TIME STEP  1, STRESS PERIOD  19
 UBDSV3 SAVING "    UZF RECHARGE" ON UNIT  61 AT TIME STEP  1, STRESS PERIOD  19
 UBDSV3 SAVING " SURFACE LEAKAGE" ON UNIT  61 AT TIME STEP  1, STRESS PERIOD  19
 UBDSV3 SAVING "       HORT+DUNN" ON UNIT  61 AT TIME STEP  1, STRESS PERIOD  19
 UBDSV3 SAVING "  STORAGE CHANGE" ON UNIT  61 AT TIME STEP  1, STRESS PERIOD  19


UNSATURATED ZONE PACKAGE VOLUMETRIC BUDGET FOR  TIME STEP     1 STRESS PERIOD   19
  ------------------------------------------------------------------------------



     CUMULATIVE VOLUMES      L**3       RATES FOR THIS TIME STEP      L**3/T
     ------------------                 ------------------------

           IN:                                      IN:
           ---                                      ---
        INFILTRATION =   545279486.3696          INFILTRATION =          23.3175

          OUT:                                     OUT:
          ----                                     ----
              UZF ET =   473187066.3135                UZF ET =          23.3175
        UZF RECHARGE =    72022227.3421          UZF RECHARGE =       0.0000E+00

            IN - OUT =       70192.7140              IN - OUT =       0.0000E+00

          STORAGE:                                 STORAGE:
          --------                                 --------
      STORAGE CHANGE =       70185.5785        STORAGE CHANGE =       8.4401E-15

 PERCENT DISCREPANCY IS DIFFERENCE BETWEEN IN-OUT MINUS CHANGE IN STORAGE
 DIVIDED BY THE AVERAGE OF IN AND OUT TIMES 100

 PERCENT DISCREPANCY =           0.00     PERCENT DISCREPANCY =           0.00






 

            AG WELLS      PERIOD   19   STEP   1
 AG WELL      1   LAYER   1   ROW     6   COL     4   RATE    -3.74500    
 AG WELL      2   LAYER   1   ROW     6   COL     5   RATE    -3.74500    
 AG WELL      3   LAYER   1   ROW     7   COL     4   RATE    -3.74500    
 AG WELL      4   LAYER   1   ROW     7   COL     5   RATE    -3.74500    
 AG WELL      5   LAYER   1   ROW     8   COL     4   RATE    -3.74500    
 AG WELL      6   LAYER   1   ROW     8   COL     5   RATE    -3.74500    
 
 

        GW IRRIGATION     PERIOD   19   STEP   1
 AG WELL      1   ROW     6   COL     4   RATE     3.74500    
 AG WELL      2   ROW     6   COL     5   RATE     3.74500    
 AG WELL      3   ROW     7   COL     4   RATE     3.74500    
 AG WELL      4   ROW     7   COL     5   RATE     3.74500    
 AG WELL      5   ROW     8   COL     4   RATE     3.74500    
 AG WELL      6   ROW     8   COL     5   RATE     3.74500    
 
1
  VOLUMETRIC BUDGET FOR AGRICULTURAL FIELDS AT  END OF TIME STEP    1, STRESS PERIOD  19
  ------------------------------------------------------------------------------

     CUMULATIVE VOLUMES      L**3       RATES FOR THIS TIME STEP      L**3/T
     ------------------                 ------------------------

           IN:                                      IN:
           ---                                      ---
               AG WELLS  =   507239744.0000                 AG WELLS  =          22.4700
      DIVERSION SEGMENTS =           0.0000        DIVERSION SEGMENTS =           0.0000
           GW IRRIGATION =           0.0000             GW IRRIGATION =           0.0000
           SW IRRIGATION =           0.0000             SW IRRIGATION =           0.0000
        SYSTEM LOSSES GW =           0.0000          SYSTEM LOSSES GW =           0.0000
        SYSTEM LOSSES SW =           0.0000          SYSTEM LOSSES SW =           0.0000

                TOTAL IN =   507239744.0000                  TOTAL IN =          22.4700

          OUT:                                     OUT:
          ----                                     ----
               AG WELLS  =           0.0000                 AG WELLS  =           0.0000
      DIVERSION SEGMENTS =           0.0000        DIVERSION SEGMENTS =           0.0000
           GW IRRIGATION =   507239744.0000             GW IRRIGATION =          22.4700
           SW IRRIGATION =           0.0000             SW IRRIGATION =           0.0000
        SYSTEM LOSSES GW =           0.0000          SYSTEM LOSSES GW =           0.0000
        SYSTEM LOSSES SW =           0.0000          SYSTEM LOSSES SW =           0.0000

               TOTAL OUT =   507239744.0000                 TOTAL OUT =          22.4700

                IN - OUT =           0.0000                  IN - OUT =           0.0000

     PERCENT DISCREPANCY =           0.00         PERCENT DISCREPANCY =           0.00



1
  VOLUMETRIC BUDGET FOR ENTIRE MODEL AT END OF TIME STEP    1, STRESS PERIOD  19
  ------------------------------------------------------------------------------

     CUMULATIVE VOLUMES      L**3       RATES FOR THIS TIME STEP      L**3/T
     ------------------                 ------------------------

           IN:                                      IN:
           ---                                      ---
             STORAGE     =   660768512.0000               STORAGE     =          21.3018
       CONSTANT HEAD     =           0.0000         CONSTANT HEAD     =           0.0000
     HEAD DEP BOUNDS     =    12810483.0000       HEAD DEP BOUNDS     =           0.2855
      STREAM LEAKAGE     =   563260544.0000        STREAM LEAKAGE     =          12.9551
        UZF RECHARGE     =    72022192.0000          UZF RECHARGE     =           0.0000
               GW ET     =           0.0000                 GW ET     =           0.0000
     SURFACE LEAKAGE     =           0.0000       SURFACE LEAKAGE     =           0.0000
           AG WELLS      =           0.0000             AG WELLS      =           0.0000

                TOTAL IN =  1308861696.0000                  TOTAL IN =          34.5423

          OUT:                                     OUT:
          ----                                     ----
             STORAGE     =   310611712.0000               STORAGE     =           0.5781
       CONSTANT HEAD     =           0.0000         CONSTANT HEAD     =           0.0000
     HEAD DEP BOUNDS     =    13225268.0000       HEAD DEP BOUNDS     =           0.2970
      STREAM LEAKAGE     =   462348672.0000        STREAM LEAKAGE     =          10.4767
        UZF RECHARGE     =           0.0000          UZF RECHARGE     =           0.0000
               GW ET     =    15431260.0000                 GW ET     =           0.7205
     SURFACE LEAKAGE     =           0.0000       SURFACE LEAKAGE     =           0.0000
           AG WELLS      =   507239744.0000             AG WELLS      =          22.4700

               TOTAL OUT =  1308856576.0000                 TOTAL OUT =          34.5424

                IN - OUT =        5120.0000                  IN - OUT =      -7.2479E-05

     PERCENT DISCREPANCY =           0.00         PERCENT DISCREPANCY =          -0.00






         TIME SUMMARY AT END OF TIME STEP    1 IN STRESS PERIOD   19
                    SECONDS     MINUTES      HOURS       DAYS        YEARS
                    -----------------------------------------------------------
   TIME STEP LENGTH  87667.      1461.1      24.352      1.0147     2.77799E-03
 STRESS PERIOD TIME  87667.      1461.1      24.352      1.0147     2.77799E-03
         TOTAL TIME 4.48841E+07 7.48069E+05  12468.      519.49      1.4223    
1
 
 SOLVING FOR HEAD 
                                                   Max.-Head-Change                         Max.-Flux-Residual
  Residual-Control   Outer-Iter.   Inner-Iter.     Column Row Layer    Maximum-Head-Change  Column Row Layer    Maximum-Flux-Residual          L2-NORM 
          0                 1           2             4    7     1      -0.5776044505E-01       4    7    1        -0.3020965678E+01      0.7092334704E+01
          0                 2           2             4    7     1       0.5618480937E-02       4    7    1         0.3020943520E+00      0.7091567925E+00
          0                 3           2             4    7     1      -0.3825980248E-03       4    7    1        -0.2114663248E-01      0.4963475230E-01
          0                 4           1             4    7     1       0.1522393208E-04       4    7    1         0.8648983917E-03      0.2029725019E-02

    ------------------------------------------------
       NWT REQUIRED            4 OUTER ITERATIONS 
       AND A TOTAL OF          7 INNER ITERATIONS.
    ------------------------------------------------

 NO OUTPUT CONTROL FOR STRESS PERIOD   19   TIME STEP    2
 
 SOLVING FOR HEAD 
                                                   Max.-Head-Change                         Max.-Flux-Residual
  Residual-Control   Outer-Iter.   Inner-Iter.     Column Row Layer    Maximum-Head-Change  Column Row Layer    Maximum-Flux-Residual          L2-NORM 
          0                 1           2             4    7     1      -0.5736175862E-01       4    7    1        -0.3001173241E+01      0.6970917617E+01
          0                 2           2             4    7     1       0.5579697524E-02       4    7    1         0.3001149620E+00      0.6970341824E+00
          0                 3           2             4    7     1      -0.3799570385E-03       4    7    1        -0.2100807652E-01      0.4878787959E-01
          0                 4           1             4    7     1       0.1511884464E-04       4    7    1         0.8592314271E-03      0.1995085038E-02

    ------------------------------------------------
       NWT REQUIRED            4 OUTER ITERATIONS 
       AND A TOTAL OF          7 INNER ITERATIONS.
    ------------------------------------------------

 NO OUTPUT CONTROL FOR STRESS PERIOD   19   TIME STEP    3
 
 SOLVING FOR HEAD 
                                                   Max.-Head-Change                         Max.-Flux-Residual
  Residual-Control   Outer-Iter.   Inner-Iter.     Column Row Layer    Maximum-Head-Change  Column Row Layer    Maximum-Flux-Residual          L2-NORM 
          0                 1           2             4    7     1      -0.5694718621E-01       4    7    1        -0.2980464150E+01      0.6856412548E+01
          0                 2           2             4    7     1       0.5539369093E-02       4    7    1         0.2980439242E+00      0.6855973105E+00
          0                 3           2             4    7     1      -0.3772108398E-03       4    7    1        -0.2086310501E-01      0.4798864472E-01
          0                 4           1             4    7     1       0.1500957059E-04       4    7    1         0.8533020814E-03      0.1962556607E-02

    ------------------------------------------------
       NWT REQUIRED            4 OUTER ITERATIONS 
       AND A TOTAL OF          7 INNER ITERATIONS.
    ------------------------------------------------

 NO OUTPUT CONTROL FOR STRESS PERIOD   19   TIME STEP    4
 
 SOLVING FOR HEAD 
                                                   Max.-Head-Change                         Max.-Flux-Residual
  Residual-Control   Outer-Iter.   Inner-Iter.     Column Row Layer    Maximum-Head-Change  Column Row Layer    Maximum-Flux-Residual          L2-NORM 
          0                 1           2             4    7     1      -0.5651814751E-01       4    7    1        -0.2958916658E+01      0.6747934785E+01
          0                 2           2             4    7     1       0.5497633727E-02       4    7    1         0.2958890625E+00      0.6747591886E+00
          0                 3           2             4    7     1      -0.3743688318E-03       4    7    1        -0.2071226570E-01      0.4723073875E-01
          0                 4           1             4    7     1       0.1489648466E-04       4    7    1         0.8471327401E-03      0.1931562677E-02

    ------------------------------------------------
       NWT REQUIRED            4 OUTER ITERATIONS 
       AND A TOTAL OF          7 INNER ITERATIONS.
    ------------------------------------------------

 NO OUTPUT CONTROL FOR STRESS PERIOD   19   TIME STEP    5
 
 SOLVING FOR HEAD 
                                                   Max.-Head-Change                         Max.-Flux-Residual
  Residual-Control   Outer-Iter.   Inner-Iter.     Column Row Layer    Maximum-Head-Change  Column Row Layer    Maximum-Flux-Residual          L2-NORM 
          0                 1           2             4    7     1      -0.5607638120E-01       4    7    1        -0.2936626465E+01      0.6644807541E+01
          0                 2           2             4    7     1       0.5454660531E-02       4    7    1         0.2936599458E+00      0.6644546095E+00
          0                 3           2             4    7     1      -0.3714425297E-03       4    7    1        -0.2055622838E-01      0.4651006875E-01
          0                 4           1             4    7     1       0.1478004403E-04       4    7    1         0.8407507967E-03      0.1902160193E-02

    ------------------------------------------------
       NWT REQUIRED            4 OUTER ITERATIONS 
       AND A TOTAL OF          7 INNER ITERATIONS.
    ------------------------------------------------

 NO OUTPUT CONTROL FOR STRESS PERIOD   19   TIME STEP    6
 
 SOLVING FOR HEAD 
                                                   Max.-Head-Change                         Max.-Flux-Residual
  Residual-Control   Outer-Iter.   Inner-Iter.     Column Row Layer    Maximum-Head-Change  Column Row Layer    Maximum-Flux-Residual          L2-NORM 
          0                 1           2             4    7     1      -0.5562324410E-01       4    7    1        -0.2913669000E+01      0.6546468814E+01
          0                 2           2             4    7     1       0.5410581469E-02       4    7    1         0.2913641156E+00      0.6546249017E+00
          0                 3           2             4    7     1      -0.3684409210E-03       4    7    1        -0.2039552099E-01      0.4582241686E-01
          0                 4           1             4    7     1       0.1466060744E-04       4    7    1         0.8341778735E-03      0.1874067490E-02

    ------------------------------------------------
       NWT REQUIRED            4 OUTER ITERATIONS 
       AND A TOTAL OF          7 INNER ITERATIONS.
    ------------------------------------------------

 NO OUTPUT CONTROL FOR STRESS PERIOD   19   TIME STEP    7
 
 SOLVING FOR HEAD 
                                                   Max.-Head-Change                         Max.-Flux-Residual
  Residual-Control   Outer-Iter.   Inner-Iter.     Column Row Layer    Maximum-Head-Change  Column Row Layer    Maximum-Flux-Residual          L2-NORM 
          0                 1           2             4    7     1      -0.5516014492E-01       4    7    1        -0.2890121974E+01      0.6452500537E+01
          0                 2           2             4    7     1       0.5365533555E-02       4    7    1         0.2890093420E+00      0.6452318948E+00
          0                 3           2             4    7     1      -0.3653733349E-03       4    7    1        -0.2023068746E-01      0.4516520653E-01
          0                 4           1             4    7     1       0.1453854547E-04       4    7    1         0.8274361658E-03      0.1847202779E-02

    ------------------------------------------------
       NWT REQUIRED            4 OUTER ITERATIONS 
       AND A TOTAL OF          7 INNER ITERATIONS.
    ------------------------------------------------

 NO OUTPUT CONTROL FOR STRESS PERIOD   19   TIME STEP    8
 
 SOLVING FOR HEAD 
                                                   Max.-Head-Change                         Max.-Flux-Residual
  Residual-Control   Outer-Iter.   Inner-Iter.     Column Row Layer    Maximum-Head-Change  Column Row Layer    Maximum-Flux-Residual          L2-NORM 
          0                 1           2             4    7     1      -0.5468853291E-01       4    7    1        -0.2866065787E+01      0.6362527812E+01
          0                 2           2             4    7     1       0.5319657745E-02       4    7    1         0.2866036641E+00      0.6362375210E+00
          0                 3           2             4    7     1      -0.3622493701E-03       4    7    1        -0.2006229048E-01      0.4453585787E-01
          0                 4           1             4    7     1       0.1441423978E-04       4    7    1         0.8205487106E-03      0.1821480315E-02

    ------------------------------------------------
       NWT REQUIRED            4 OUTER ITERATIONS 
       AND A TOTAL OF          7 INNER ITERATIONS.
    ------------------------------------------------

 NO OUTPUT CONTROL FOR STRESS PERIOD   19   TIME STEP    9
 
 SOLVING FOR HEAD 
                                                   Max.-Head-Change                         Max.-Flux-Residual
  Residual-Control   Outer-Iter.   Inner-Iter.     Column Row Layer    Maximum-Head-Change  Column Row Layer    Maximum-Flux-Residual          L2-NORM 
          0                 1           2             4    7     1      -0.5420949443E-01       4    7    1        -0.2841560866E+01      0.6276241682E+01
          0                 2           2             4    7     1       0.5273059696E-02       4    7    1         0.2841531234E+00      0.6276110885E+00
          0                 3           2             4    7     1      -0.3590762222E-03       4    7    1        -0.1989075301E-01      0.4393219874E-01
          0                 4           1             4    7     1       0.1428797693E-04       4    7    1         0.8135328071E-03      0.1796777407E-02

    ------------------------------------------------
       NWT REQUIRED            4 OUTER ITERATIONS 
       AND A TOTAL OF          7 INNER ITERATIONS.
    ------------------------------------------------

 NO OUTPUT CONTROL FOR STRESS PERIOD   19   TIME STEP   10
 
 SOLVING FOR HEAD 
                                                   Max.-Head-Change                         Max.-Flux-Residual
  Residual-Control   Outer-Iter.   Inner-Iter.     Column Row Layer    Maximum-Head-Change  Column Row Layer    Maximum-Flux-Residual          L2-NORM 
          0                 1           2             4    7     1      -0.5372404125E-01       4    7    1        -0.2816663541E+01      0.6193368236E+01
          0                 2           2             4    7     1       0.5225837815E-02       4    7    1         0.2816633520E+00      0.6193254287E+00
          0                 3           2             4    7     1      -0.3558605925E-03       4    7    1        -0.1971646931E-01      0.4335231903E-01
          0                 4           1             4    7     1       0.1416002434E-04       4    7    1         0.8064046087E-03      0.1773079851E-02

    ------------------------------------------------
       NWT REQUIRED            4 OUTER ITERATIONS 
       AND A TOTAL OF          7 INNER ITERATIONS.
    ------------------------------------------------

 NO OUTPUT CONTROL FOR STRESS PERIOD   19   TIME STEP   11
 
 SOLVING FOR HEAD 
                                                   Max.-Head-Change                         Max.-Flux-Residual
  Residual-Control   Outer-Iter.   Inner-Iter.     Column Row Layer    Maximum-Head-Change  Column Row Layer    Maximum-Flux-Residual          L2-NORM 
          0                 1           2             4    7     1      -0.5323338061E-01       4    7    1        -0.2791440985E+01      0.6113683020E+01
          0                 2           2             4    7     1       0.5178109521E-02       4    7    1         0.2791410666E+00      0.6113582004E+00
          0                 3           2             4    7     1      -0.3526104763E-03       4    7    1        -0.1953990953E-01      0.4279470462E-01
          0                 4           1             4    7     1       0.1403069898E-04       4    7    1         0.7991832981E-03      0.1750281017E-02

    ------------------------------------------------
       NWT REQUIRED            4 OUTER ITERATIONS 
       AND A TOTAL OF          7 INNER ITERATIONS.
    ------------------------------------------------

 NO OUTPUT CONTROL FOR STRESS PERIOD   19   TIME STEP   12
 
 SOLVING FOR HEAD 
                                                   Max.-Head-Change                         Max.-Flux-Residual
  Residual-Control   Outer-Iter.   Inner-Iter.     Column Row Layer    Maximum-Head-Change  Column Row Layer    Maximum-Flux-Residual          L2-NORM 
          0                 1           2             4    7     1      -0.5273850472E-01       4    7    1        -0.2765948438E+01      0.6036972486E+01
          0                 2           2             4    7     1       0.5129971315E-02       4    7    1         0.2765917901E+00      0.6036880221E+00
          0                 3           2             4    7     1      -0.3493324458E-03       4    7    1        -0.1936146031E-01      0.4225796221E-01
          0                 4           1             4    7     1       0.1390026309E-04       4    7    1         0.7918847155E-03      0.1728433673E-02

    ------------------------------------------------
       NWT REQUIRED            4 OUTER ITERATIONS 
       AND A TOTAL OF          7 INNER ITERATIONS.
    ------------------------------------------------

 NO OUTPUT CONTROL FOR STRESS PERIOD   19   TIME STEP   13
 
 SOLVING FOR HEAD 
                                                   Max.-Head-Change                         Max.-Flux-Residual
  Residual-Control   Outer-Iter.   Inner-Iter.     Column Row Layer    Maximum-Head-Change  Column Row Layer    Maximum-Flux-Residual          L2-NORM 
          0                 1           2             4    7     1      -0.5224033616E-01       4    7    1        -0.2740237344E+01      0.5963061201E+01
          0                 2           2             4    7     1       0.5081514620E-02       4    7    1         0.2740206663E+00      0.5964026934E+00
          0                 3           2             4    7     1      -0.3460327198E-03       4    7    1        -0.1918148170E-01      0.4174795297E-01
          0                 4           1             4    7     1       0.1376896374E-04       4    7    1         0.7845235500E-03      0.1707477116E-02

    ------------------------------------------------
       NWT REQUIRED            4 OUTER ITERATIONS 
       AND A TOTAL OF          7 INNER ITERATIONS.
    ------------------------------------------------

 NO OUTPUT CONTROL FOR STRESS PERIOD   19   TIME STEP   14
 
 SOLVING FOR HEAD 
                                                   Max.-Head-Change                         Max.-Flux-Residual
  Residual-Control   Outer-Iter.   Inner-Iter.     Column Row Layer    Maximum-Head-Change  Column Row Layer    Maximum-Flux-Residual          L2-NORM 
          0                 1           2             4    7     1      -0.5173956998E-01       4    7    1        -0.2714348095E+01      0.5891705816E+01
          0                 2           2             4    7     1       0.5032802514E-02       4    7    1         0.2714317337E+00      0.5891644319E+00
          0                 3           2             4    7     1      -0.3427156074E-03       4    7    1        -0.1900025641E-01      0.4124132335E-01
          0                 4           1             4    7     1       0.1363697306E-04       4    7    1         0.7771114501E-03      0.1686752998E-02

    ------------------------------------------------
       NWT REQUIRED            4 OUTER ITERATIONS 
       AND A TOTAL OF          7 INNER ITERATIONS.
    ------------------------------------------------

 NO OUTPUT CONTROL FOR STRESS PERIOD   19   TIME STEP   15
 
 SOLVING FOR HEAD 
                                                   Max.-Head-Change                         Max.-Flux-Residual
  Residual-Control   Outer-Iter.   Inner-Iter.     Column Row Layer    Maximum-Head-Change  Column Row Layer    Maximum-Flux-Residual          L2-NORM 
          0                 1           2             4    7     1      -0.5123699811E-01       4    7    1        -0.2688324327E+01      0.5822433726E+01
          0                 2           2             4    7     1       0.4983915960E-02       4    7    1         0.2688293552E+00      0.5822376836E+00
          0                 3           2             4    7     1      -0.3393866144E-03       4    7    1        -0.1881808985E-01      0.4075649922E-01
          0                 4           1             4    7     1       0.1350450920E-04       4    7    1         0.7696608182E-03      0.1666932901E-02

    ------------------------------------------------
       NWT REQUIRED            4 OUTER ITERATIONS 
       AND A TOTAL OF          7 INNER ITERATIONS.
    ------------------------------------------------

 NO OUTPUT CONTROL FOR STRESS PERIOD   19   TIME STEP   16
 
 SOLVING FOR HEAD 
                                                   Max.-Head-Change                         Max.-Flux-Residual
  Residual-Control   Outer-Iter.   Inner-Iter.     Column Row Layer    Maximum-Head-Change  Column Row Layer    Maximum-Flux-Residual          L2-NORM 
          0                 1           2             4    7     1      -0.5073348113E-01       4    7    1        -0.2662214242E+01      0.5755536242E+01
          0                 2           2             4    7     1       0.4934937554E-02       4    7    1         0.2662183504E+00      0.5755482955E+00
          0                 3           2             4    7     1      -0.3360513658E-03       4    7    1        -0.1863531941E-01      0.4028824594E-01
          0                 4           1             4    7     1       0.1337179643E-04       4    7    1         0.7621854893E-03      0.1647780460E-02

    ------------------------------------------------
       NWT REQUIRED            4 OUTER ITERATIONS 
       AND A TOTAL OF          7 INNER ITERATIONS.
    ------------------------------------------------

 NO OUTPUT CONTROL FOR STRESS PERIOD   19   TIME STEP   17
 
 SOLVING FOR HEAD 
                                                   Max.-Head-Change                         Max.-Flux-Residual
  Residual-Control   Outer-Iter.   Inner-Iter.     Column Row Layer    Maximum-Head-Change  Column Row Layer    Maximum-Flux-Residual          L2-NORM 
          0                 1           2             4    7     1      -0.5022968353E-01       4    7    1        -0.2636055167E+01      0.5690884524E+01
          0                 2           2             4    7     1       0.4885931923E-02       4    7    1         0.2636024515E+00      0.5690834458E+00
          0                 3           2             4    7     1      -0.3327142627E-03       4    7    1        -0.1845220634E-01      0.3983574904E-01
          0                 4           1             4    7     1       0.1323900987E-04       4    7    1         0.7546961510E-03      0.1629271367E-02

    ------------------------------------------------
       NWT REQUIRED            4 OUTER ITERATIONS 
       AND A TOTAL OF          7 INNER ITERATIONS.
    ------------------------------------------------

 NO OUTPUT CONTROL FOR STRESS PERIOD   19   TIME STEP   18
 
 SOLVING FOR HEAD 
                                                   Max.-Head-Change                         Max.-Flux-Residual
  Residual-Control   Outer-Iter.   Inner-Iter.     Column Row Layer    Maximum-Head-Change  Column Row Layer    Maximum-Flux-Residual          L2-NORM 
          0                 1           2             4    7     1      -0.4972608283E-01       4    7    1        -0.2609874204E+01      0.5628343522E+01
          0                 2           2             4    7     1       0.4836945509E-02       4    7    1         0.2609843683E+00      0.5628296150E+00
          0                 3           2             4    7     1      -0.3293784675E-03       4    7    1        -0.1826894030E-01      0.3939799666E-01
          0                 4           1             4    7     1       0.1310627558E-04       4    7    1         0.7472005664E-03      0.1611370694E-02

    ------------------------------------------------
       NWT REQUIRED            4 OUTER ITERATIONS 
       AND A TOTAL OF          7 INNER ITERATIONS.
    ------------------------------------------------

 NO OUTPUT CONTROL FOR STRESS PERIOD   19   TIME STEP   19
 
 SOLVING FOR HEAD 
                                                   Max.-Head-Change                         Max.-Flux-Residual
  Residual-Control   Outer-Iter.   Inner-Iter.     Column Row Layer    Maximum-Head-Change  Column Row Layer    Maximum-Flux-Residual          L2-NORM 
          0                 1           2             4    7     1      -0.4922338651E-01       4    7    1        -0.2583710816E+01      0.5567813890E+01
          0                 2           2             4    7     1       0.4788047126E-02       4    7    1         0.2583680464E+00      0.5567768814E+00
          0                 3           2             4    7     1      -0.3260486662E-03       4    7    1        -0.1808579751E-01      0.3897432380E-01
          0                 4           1             4    7     1       0.1297377948E-04       4    7    1         0.7397100144E-03      0.1594047213E-02

    ------------------------------------------------
       NWT REQUIRED            4 OUTER ITERATIONS 
       AND A TOTAL OF          7 INNER ITERATIONS.
    ------------------------------------------------

 NO OUTPUT CONTROL FOR STRESS PERIOD   19   TIME STEP   20
 
 SOLVING FOR HEAD 
                                                   Max.-Head-Change                         Max.-Flux-Residual
  Residual-Control   Outer-Iter.   Inner-Iter.     Column Row Layer    Maximum-Head-Change  Column Row Layer    Maximum-Flux-Residual          L2-NORM 
          0                 1           2             4    7     1      -0.4872197740E-01       4    7    1        -0.2557586984E+01      0.5509188922E+01
          0                 2           2             4    7     1       0.4739274004E-02       4    7    1         0.2557556838E+00      0.5509145741E+00
          0                 3           2             4    7     1      -0.3227273949E-03       4    7    1        -0.1790293187E-01      0.3856396850E-01
          0                 4           1             4    7     1       0.1284162347E-04       4    7    1         0.7322308197E-03      0.1577261344E-02

    ------------------------------------------------
       NWT REQUIRED            4 OUTER ITERATIONS 
       AND A TOTAL OF          7 INNER ITERATIONS.
    ------------------------------------------------

 NO OUTPUT CONTROL FOR STRESS PERIOD   19   TIME STEP   21
 
 SOLVING FOR HEAD 
                                                   Max.-Head-Change                         Max.-Flux-Residual
  Residual-Control   Outer-Iter.   Inner-Iter.     Column Row Layer    Maximum-Head-Change  Column Row Layer    Maximum-Flux-Residual          L2-NORM 
          0                 1           2             4    7     1      -0.4822247583E-01       4    7    1        -0.2531537255E+01      0.5452372573E+01
          0                 2           2             4    7     1       0.4690686481E-02       4    7    1         0.2531507346E+00      0.5452331300E+00
          0                 3           2             4    7     1      -0.3194187612E-03       4    7    1        -0.1772058513E-01      0.3816629252E-01
          0                 4           1             4    7     1       0.1270997011E-04       4    7    1         0.7247728367E-03      0.1560999130E-02

    ------------------------------------------------
       NWT REQUIRED            4 OUTER ITERATIONS 
       AND A TOTAL OF          7 INNER ITERATIONS.
    ------------------------------------------------

 NO OUTPUT CONTROL FOR STRESS PERIOD   19   TIME STEP   22
 
 SOLVING FOR HEAD 
                                                   Max.-Head-Change                         Max.-Flux-Residual
  Residual-Control   Outer-Iter.   Inner-Iter.     Column Row Layer    Maximum-Head-Change  Column Row Layer    Maximum-Flux-Residual          L2-NORM 
          0                 1           2             4    7     1      -0.4772517752E-01       4    7    1        -0.2505579098E+01      0.5397271003E+01
          0                 2           2             4    7     1       0.4642313315E-02       4    7    1         0.2505549454E+00      0.5397231112E+00
          0                 3           2             4    7     1      -0.3161247237E-03       4    7    1        -0.1753887955E-01      0.3778058009E-01
          0                 4           1             4    7     1       0.1257889688E-04       4    7    1         0.7173410404E-03      0.1545918738E-02

    ------------------------------------------------
       NWT REQUIRED            4 OUTER ITERATIONS 
       AND A TOTAL OF          7 INNER ITERATIONS.
    ------------------------------------------------

 NO OUTPUT CONTROL FOR STRESS PERIOD   19   TIME STEP   23
 
 SOLVING FOR HEAD 
                                                   Max.-Head-Change                         Max.-Flux-Residual
  Residual-Control   Outer-Iter.   Inner-Iter.     Column Row Layer    Maximum-Head-Change  Column Row Layer    Maximum-Flux-Residual          L2-NORM 
          0                 1           2             4    7     1      -0.4723062350E-01       4    7    1        -0.2479742541E+01      0.5343813779E+01
          0                 2           2             4    7     1       0.4594207130E-02       4    7    1         0.2479713186E+00      0.5343775323E+00
          0                 3           2             4    7     1      -0.3128488665E-03       4    7    1        -0.1735802531E-01      0.3740641284E-01
          0                 4           1             4    7     1       0.1244854722E-04       4    7    1         0.7099440968E-03      0.1529927655E-02

    ------------------------------------------------
       NWT REQUIRED            4 OUTER ITERATIONS 
       AND A TOTAL OF          7 INNER ITERATIONS.
    ------------------------------------------------

 NO OUTPUT CONTROL FOR STRESS PERIOD   19   TIME STEP   24
 
 SOLVING FOR HEAD 
                                                   Max.-Head-Change                         Max.-Flux-Residual
  Residual-Control   Outer-Iter.   Inner-Iter.     Column Row Layer    Maximum-Head-Change  Column Row Layer    Maximum-Flux-Residual          L2-NORM 
          0                 1           2             4    7     1      -0.4673904042E-01       4    7    1        -0.2454040942E+01      0.5291917702E+01
          0                 2           2             4    7     1       0.4546389968E-02       4    7    1         0.2454011898E+00      0.5291880471E+00
          0                 3           2             4    7     1      -0.3095926907E-03       4    7    1        -0.1717811593E-01      0.3704314933E-01
          0                 4           1             4    7     1       0.1231898135E-04       4    7    1         0.7025858149E-03      0.1515066169E-02

    ------------------------------------------------
       NWT REQUIRED            4 OUTER ITERATIONS 
       AND A TOTAL OF          7 INNER ITERATIONS.
    ------------------------------------------------

 NO OUTPUT CONTROL FOR STRESS PERIOD   19   TIME STEP   25
 
 SOLVING FOR HEAD 
                                                   Max.-Head-Change                         Max.-Flux-Residual
  Residual-Control   Outer-Iter.   Inner-Iter.     Column Row Layer    Maximum-Head-Change  Column Row Layer    Maximum-Flux-Residual          L2-NORM 
          0                 1           2             4    7     1      -0.4625089482E-01       4    7    1        -0.2428500743E+01      0.5241506236E+01
          0                 2           2             4    7     1       0.4498907206E-02       4    7    1         0.2428472029E+00      0.5241470119E+00
          0                 3           2             4    7     1      -0.3063592857E-03       4    7    1        -0.1699933646E-01      0.3669027903E-01
          0                 4           1             4    7     1       0.1219032108E-04       4    7    1         0.6952737103E-03      0.1500635120E-02

    ------------------------------------------------
       NWT REQUIRED            4 OUTER ITERATIONS 
       AND A TOTAL OF          7 INNER ITERATIONS.
    ------------------------------------------------

 NO OUTPUT CONTROL FOR STRESS PERIOD   19   TIME STEP   26
 
 SOLVING FOR HEAD 
                                                   Max.-Head-Change                         Max.-Flux-Residual
  Residual-Control   Outer-Iter.   Inner-Iter.     Column Row Layer    Maximum-Head-Change  Column Row Layer    Maximum-Flux-Residual          L2-NORM 
          0                 1           2             4    7     1      -0.4576648018E-01       4    7    1        -0.2403138791E+01      0.5192521521E+01
          0                 2           2             4    7     1       0.4451787389E-02       4    7    1         0.2403110422E+00      0.5192486422E+00
          0                 3           2             4    7     1      -0.3031505960E-03       4    7    1        -0.1682180481E-01      0.3634739945E-01
          0                 4           1             4    7     1       0.1206264434E-04       4    7    1         0.6880126707E-03      0.1486610476E-02

    ------------------------------------------------
       NWT REQUIRED            4 OUTER ITERATIONS 
       AND A TOTAL OF          7 INNER ITERATIONS.
    ------------------------------------------------

 NO OUTPUT CONTROL FOR STRESS PERIOD   19   TIME STEP   27
 
 SOLVING FOR HEAD 
                                                   Max.-Head-Change                         Max.-Flux-Residual
  Residual-Control   Outer-Iter.   Inner-Iter.     Column Row Layer    Maximum-Head-Change  Column Row Layer    Maximum-Flux-Residual          L2-NORM 
          0                 1           2             4    7     1      -0.4528606211E-01       4    7    1        -0.2377970300E+01      0.5144899047E+01
          0                 2           2             4    7     1       0.4405056348E-02       4    7    1         0.2377942291E+00      0.5144865009E+00
          0                 3           2             4    7     1      -0.2999683801E-03       4    7    1        -0.1664562749E-01      0.3601405351E-01
          0                 4           1             4    7     1       0.1193602102E-04       4    7    1         0.6808069907E-03      0.1472973940E-02

    ------------------------------------------------
       NWT REQUIRED            4 OUTER ITERATIONS 
       AND A TOTAL OF          7 INNER ITERATIONS.
    ------------------------------------------------

 NO OUTPUT CONTROL FOR STRESS PERIOD   19   TIME STEP   28
 
 SOLVING FOR HEAD 
                                                   Max.-Head-Change                         Max.-Flux-Residual
  Residual-Control   Outer-Iter.   Inner-Iter.     Column Row Layer    Maximum-Head-Change  Column Row Layer    Maximum-Flux-Residual          L2-NORM 
          0                 1           2             4    7     1      -0.4480989123E-01       4    7    1        -0.2353009042E+01      0.5100233098E+01
          0                 2           2             4    7     1       0.4358738460E-02       4    7    1         0.2352981404E+00      0.5100158396E+00
          0                 3           2             4    7     1      -0.2968142980E-03       4    7    1        -0.1647090083E-01      0.3570074756E-01
          0                 4           1             4    7     1       0.1181051743E-04       4    7    1         0.6736606797E-03      0.1460204725E-02

    ------------------------------------------------
       NWT REQUIRED            4 OUTER ITERATIONS 
       AND A TOTAL OF          7 INNER ITERATIONS.
    ------------------------------------------------

 NO OUTPUT CONTROL FOR STRESS PERIOD   19   TIME STEP   29
 
 SOLVING FOR HEAD 
                                                   Max.-Head-Change                         Max.-Flux-Residual
  Residual-Control   Outer-Iter.   Inner-Iter.     Column Row Layer    Maximum-Head-Change  Column Row Layer    Maximum-Flux-Residual          L2-NORM 
          0                 1           2             4    7     1      -0.4433805233E-01       4    7    1        -0.2328260671E+01      0.5058351849E+01
          0                 2           2             4    7     1       0.4312841972E-02       4    7    1         0.2328233415E+00      0.5058178341E+00
          0                 3           2             4    7     1      -0.2936889117E-03       4    7    1        -0.1629766447E-01      0.3540599571E-01
          0                 4           1             4    7     1       0.1168615544E-04       4    7    1         0.6665753026E-03      0.1448024422E-02

    ------------------------------------------------
       NWT REQUIRED            4 OUTER ITERATIONS 
       AND A TOTAL OF          7 INNER ITERATIONS.
    ------------------------------------------------

 NO OUTPUT CONTROL FOR STRESS PERIOD   19   TIME STEP   30



 STREAM LISTING     PERIOD     19   STEP       30

 LAYER ROW COL. STREAM  RCH.  FLOW INTO     FLOW TO   FLOW OUT OF   OVRLND.     DIRECT     STREAM       STREAM     STREAM     STREAM   STREAMBED  STREAMBED
                SEG.NO.  NO.  STRM. RCH.    AQUIFER    STRM. RCH.    RUNOFF     PRECIP       ET          HEAD       DEPTH      WIDTH   CONDCTNC.   GRADIENT

   1    1    1     1     1    5.4001E+01  3.5066E-01   5.3650E+01  0.000E+00  0.000E+00  0.000E+00  1.09450E+03  1.450E+00  1.751E+01  7.879E-02  1.483E+00
   1    2    2     1     2    5.3650E+01  5.4294E-01   5.3107E+01  0.000E+00  0.000E+00  0.000E+00  1.08950E+03  1.445E+00  1.745E+01  1.222E-01  1.482E+00
   1    3    3     1     3    5.3107E+01  4.6294E-01   5.2644E+01  0.000E+00  0.000E+00  0.000E+00  1.08386E+03  1.438E+00  1.739E+01  1.043E-01  1.479E+00
   1    3    4     1     4    5.2644E+01  4.2621E-01   5.2218E+01  0.000E+00  0.000E+00  0.000E+00  1.07884E+03  1.432E+00  1.733E+01  9.616E-02  1.477E+00
   1    4    5     2     1    5.0218E+01  3.7682E-01   4.9841E+01  0.000E+00  0.000E+00  0.000E+00  1.07376E+03  1.831E+00  1.200E+01  7.800E-02  1.610E+00
   1    5    6     2     2    4.9841E+01  2.8942E-01   4.9552E+01  0.000E+00  0.000E+00  0.000E+00  1.06833E+03  1.824E+00  1.200E+01  6.000E-02  1.608E+00
   1    6    6     2     3    4.9552E+01  2.8904E-01   4.9263E+01  0.000E+00  0.000E+00  0.000E+00  1.06361E+03  1.817E+00  1.200E+01  6.000E-02  1.606E+00
   1    7    6     2     4    4.9263E+01  2.8865E-01   4.8974E+01  0.000E+00  0.000E+00  0.000E+00  1.05889E+03  1.811E+00  1.200E+01  6.000E-02  1.604E+00
   1    8    6     2     5    4.8974E+01  2.8827E-01   4.8686E+01  0.000E+00  0.000E+00  0.000E+00  1.05416E+03  1.804E+00  1.200E+01  6.000E-02  1.601E+00
   1    3    5     3     1    2.0000E+00  2.8252E-01   1.7175E+00  0.000E+00  0.000E+00  0.000E+00  1.07555E+03  1.909E+00  9.636E+00  7.227E-02  1.955E+00
   1    3    6     3     2    1.7175E+00  2.4905E-01   1.4684E+00  0.000E+00  0.000E+00  0.000E+00  1.07264E+03  1.727E+00  8.909E+00  6.682E-02  1.864E+00
   1    3    7     3     3    1.4684E+00  1.9718E-01   1.2712E+00  0.000E+00  0.000E+00  0.000E+00  1.06987E+03  1.555E+00  8.218E+00  5.547E-02  1.777E+00
   1    4    8     3     4    1.2712E+00  2.2567E-01   1.0456E+00  0.000E+00  0.000E+00  0.000E+00  1.06682E+03  1.364E+00  7.455E+00  6.709E-02  1.682E+00
   1    5    8     3     5    1.0456E+00  1.5790E-01   8.8768E-01  0.000E+00  0.000E+00  0.000E+00  1.06362E+03  1.164E+00  6.655E+00  4.991E-02  1.582E+00
   1    6    8     3     6    8.8768E-01  5.5980E-02   8.3170E-01  0.000E+00  0.000E+00  0.000E+00  1.06158E+03  1.036E+00  6.145E+00  1.844E-02  1.518E+00
   1    5   10     4     1    1.0000E+01  9.0919E-02   9.9091E+00  0.000E+00  0.000E+00  0.000E+00  1.07836E+03  6.368E-01  1.000E+01  2.500E-02  1.212E+00
   1    5    9     4     2    9.9091E+00  1.8158E-01   9.7275E+00  0.000E+00  0.000E+00  0.000E+00  1.07154E+03  6.315E-01  1.000E+01  5.000E-02  1.211E+00
   1    6    8     4     3    9.7275E+00  1.2689E-01   9.6006E+00  0.000E+00  0.000E+00  0.000E+00  1.06381E+03  6.256E-01  1.000E+01  3.500E-02  1.209E+00
   1    6    8     5     1    1.0432E+01  2.2686E-01   1.0205E+01  0.000E+00  0.000E+00  0.000E+00  1.05868E+03  6.790E-01  1.542E+01  6.166E-02  1.226E+00
   1    7    7     5     2    1.0205E+01  2.7894E-01   9.9265E+00  0.000E+00  0.000E+00  0.000E+00  1.05417E+03  6.732E-01  1.519E+01  7.594E-02  1.224E+00
   1    8    7     5     3    9.9265E+00  1.9221E-01   9.7343E+00  0.000E+00  0.000E+00  0.000E+00  1.04992E+03  6.676E-01  1.497E+01  5.241E-02  1.223E+00
   1    8    6     5     4    9.7343E+00  1.3577E-01   9.5985E+00  0.000E+00  0.000E+00  0.000E+00  1.04691E+03  6.637E-01  1.482E+01  3.706E-02  1.221E+00
   1    9    6     6     1    5.8284E+01  3.0156E-01   5.7983E+01  0.000E+00  0.000E+00  0.000E+00  1.04475E+03  2.026E+00  1.200E+01  6.000E-02  1.675E+00
   1   10    7     6     2    5.7983E+01  3.0118E-01   5.7682E+01  0.000E+00  0.000E+00  0.000E+00  1.04020E+03  2.020E+00  1.200E+01  6.000E-02  1.673E+00
   1   11    7     6     3    5.7682E+01  3.0080E-01   5.7381E+01  0.000E+00  0.000E+00  0.000E+00  1.03565E+03  2.013E+00  1.200E+01  6.000E-02  1.671E+00
   1   12    7     6     4    5.7381E+01  3.0042E-01   5.7080E+01  0.000E+00  0.000E+00  0.000E+00  1.03110E+03  2.007E+00  1.200E+01  6.000E-02  1.669E+00
   1   13    7     6     5    5.7080E+01  1.9765E-02   5.7061E+01  0.000E+00  0.000E+00  0.000E+00  1.02791E+03  2.004E+00  1.200E+01  2.400E-02  2.745E-01
   1   14    9     7     1    1.5000E+02  1.3321E+00   1.4867E+02  0.000E+00  0.000E+00  0.000E+00  1.03987E+03  2.288E+00  5.529E+01  5.593E-01  7.939E-01
   1   13    8     7     2    1.4867E+02  1.8284E+00   1.4684E+02  0.000E+00  0.000E+00  0.000E+00  1.03478E+03  2.279E+00  5.526E+01  6.148E-01  9.914E-01
   1   13    7     7     3    1.4684E+02  1.4524E+00   1.4539E+02  0.000E+00  0.000E+00  0.000E+00  1.02969E+03  2.271E+00  5.522E+01  5.585E-01  8.669E-01
   1   13    6     8     1    2.0245E+02  1.0331E+00   2.0141E+02  0.000E+00  0.000E+00  0.000E+00  1.02502E+03  3.149E+00  4.566E+01  4.653E-01  7.401E-01
   1   13    5     8     2    2.0141E+02  2.3774E-01   2.0118E+02  0.000E+00  0.000E+00  0.000E+00  1.01877E+03  3.145E+00  4.561E+01  4.648E-01  1.705E-01
   1   13    4     8     3    2.0118E+02 -2.2630E+00   2.0344E+02  0.000E+00  0.000E+00  0.000E+00  1.01253E+03  3.151E+00  4.569E+01  4.656E+00 -1.620E-01
   1   13    3     8     4    2.0344E+02 -3.4598E+00   2.0690E+02  0.000E+00  0.000E+00  0.000E+00  1.00629E+03  3.168E+00  4.593E+01  4.681E+00 -2.464E-01
   1   13    2     8     5    2.0690E+02 -2.6092E+00   2.0951E+02  0.000E+00  0.000E+00  0.000E+00  1.00006E+03  3.185E+00  4.619E+01  4.707E+00 -1.848E-01
   1   13    1     8     6    2.0951E+02 -2.0314E+00   2.1154E+02  0.000E+00  0.000E+00  0.000E+00  9.95074E+02  3.199E+00  4.638E+01  2.836E+00 -2.388E-01





UNSATURATED ZONE PACKAGE VOLUMETRIC BUDGET FOR  TIME STEP    30 STRESS PERIOD   19
  ------------------------------------------------------------------------------



     CUMULATIVE VOLUMES      L**3       RATES FOR THIS TIME STEP      L**3/T
     ------------------                 ------------------------

           IN:                                      IN:
           ---                                      ---
        INFILTRATION =   604560349.1876          INFILTRATION =          23.3175

          OUT:                                     OUT:
          ----                                     ----
              UZF ET =   532467929.1315                UZF ET =          23.3175
        UZF RECHARGE =    72022227.3421          UZF RECHARGE =       0.0000E+00

            IN - OUT =       70192.7140              IN - OUT =       0.0000E+00

          STORAGE:                                 STORAGE:
          --------                                 --------
      STORAGE CHANGE =       70185.5785        STORAGE CHANGE =       8.4408E-15

 PERCENT DISCREPANCY IS DIFFERENCE BETWEEN IN-OUT MINUS CHANGE IN STORAGE
 DIVIDED BY THE AVERAGE OF IN AND OUT TIMES 100

 PERCENT DISCREPANCY =           0.00     PERCENT DISCREPANCY =           0.00






1
  VOLUMETRIC BUDGET FOR AGRICULTURAL FIELDS AT  END OF TIME STEP   30, STRESS PERIOD  19
  ------------------------------------------------------------------------------

     CUMULATIVE VOLUMES      L**3       RATES FOR THIS TIME STEP      L**3/T
     ------------------                 ------------------------

           IN:                                      IN:
           ---                                      ---
               AG WELLS  =   564365568.0000                 AG WELLS  =          22.4700
      DIVERSION SEGMENTS =           0.0000        DIVERSION SEGMENTS =           0.0000
           GW IRRIGATION =           0.0000             GW IRRIGATION =           0.0000
           SW IRRIGATION =           0.0000             SW IRRIGATION =           0.0000
        SYSTEM LOSSES GW =           0.0000          SYSTEM LOSSES GW =           0.0000
        SYSTEM LOSSES SW =           0.0000          SYSTEM LOSSES SW =           0.0000

                TOTAL IN =   564365568.0000                  TOTAL IN =          22.4700

          OUT:                                     OUT:
          ----                                     ----
               AG WELLS  =           0.0000                 AG WELLS  =           0.0000
      DIVERSION SEGMENTS =           0.0000        DIVERSION SEGMENTS =           0.0000
           GW IRRIGATION =   564365568.0000             GW IRRIGATION =          22.4700
           SW IRRIGATION =           0.0000             SW IRRIGATION =           0.0000
        SYSTEM LOSSES GW =           0.0000          SYSTEM LOSSES GW =           0.0000
        SYSTEM LOSSES SW =           0.0000          SYSTEM LOSSES SW =           0.0000

               TOTAL OUT =   564365568.0000                 TOTAL OUT =          22.4700

                IN - OUT =           0.0000                  IN - OUT =           0.0000

     PERCENT DISCREPANCY =           0.00         PERCENT DISCREPANCY =           0.00



1
  VOLUMETRIC BUDGET FOR ENTIRE MODEL AT END OF TIME STEP   30, STRESS PERIOD  19
  ------------------------------------------------------------------------------

     CUMULATIVE VOLUMES      L**3       RATES FOR THIS TIME STEP      L**3/T
     ------------------                 ------------------------

           IN:                                      IN:
           ---                                      ---
             STORAGE     =   713082944.0000               STORAGE     =          20.7175
       CONSTANT HEAD     =           0.0000         CONSTANT HEAD     =           0.0000
     HEAD DEP BOUNDS     =    13536264.0000       HEAD DEP BOUNDS     =           0.2855
      STREAM LEAKAGE     =   596196608.0000        STREAM LEAKAGE     =          12.8238
        UZF RECHARGE     =    72022192.0000          UZF RECHARGE     =           0.0000
               GW ET     =           0.0000                 GW ET     =           0.0000
     SURFACE LEAKAGE     =           0.0000       SURFACE LEAKAGE     =           0.0000
           AG WELLS      =           0.0000             AG WELLS      =           0.0000

                TOTAL IN =  1394837888.0000                  TOTAL IN =          33.8268

          OUT:                                     OUT:
          ----                                     ----
             STORAGE     =   311709248.0000               STORAGE     =           0.3658
       CONSTANT HEAD     =           0.0000         CONSTANT HEAD     =           0.0000
     HEAD DEP BOUNDS     =    13978815.0000       HEAD DEP BOUNDS     =           0.2960
      STREAM LEAKAGE     =   488292896.0000        STREAM LEAKAGE     =          10.3633
        UZF RECHARGE     =           0.0000          UZF RECHARGE     =           0.0000
               GW ET     =    16486010.0000                 GW ET     =           0.3317
     SURFACE LEAKAGE     =           0.0000       SURFACE LEAKAGE     =           0.0000
           AG WELLS      =   564365568.0000             AG WELLS      =          22.4700

               TOTAL OUT =  1394832512.0000                 TOTAL OUT =          33.8269

                IN - OUT =        5376.0000                  IN - OUT =      -6.8665E-05

     PERCENT DISCREPANCY =           0.00         PERCENT DISCREPANCY =          -0.00






         TIME SUMMARY AT END OF TIME STEP   30 IN STRESS PERIOD   19
                    SECONDS     MINUTES      HOURS       DAYS        YEARS
                    -----------------------------------------------------------
   TIME STEP LENGTH  87667.      1461.1      24.352      1.0147     2.77799E-03
 STRESS PERIOD TIME 2.63000E+06  43833.      730.56      30.440     8.33397E-02
         TOTAL TIME 4.74265E+07 7.90442E+05  13174.      548.92      1.5029    
1
1
                            STRESS PERIOD NO.   20, LENGTH =   2630000.    
                            -----------------------------------------------

                              NUMBER OF TIME STEPS =    30

                               MULTIPLIER FOR DELT =     1.000

                            INITIAL TIME STEP SIZE =   87666.66    

 REUSING NON-PARAMETER GHB CELLS FROM LAST STRESS PERIOD

      2 GHB CELLS

 REUSING STREAM SEGMENT DATA FROM LAST STRESS PERIOD



            AREAL INFILTRATION RATE
 READING ON UNIT   19 WITH FORMAT: (FREE)              

            1           2           3           4           5           6           7           8           9          10
 ........................................................................................................................
   1   1.0000E-10  2.0000E-10   0.000       0.000       0.000       0.000       0.000       0.000       0.000       0.000    
   2   2.0000E-10  1.0000E-10  2.0000E-10   0.000       0.000      8.0000E-10  8.0000E-10  5.0000E-10   0.000       0.000    
   3    0.000      5.0000E-10  1.0000E-10  1.0000E-10  8.0000E-10  8.0000E-10  5.0000E-10  5.0000E-10   0.000       0.000    
   4   8.0000E-10  5.0000E-10  1.0000E-10  1.0000E-10  1.0000E-10  1.0000E-10  1.0000E-10  1.0000E-10  2.0000E-10   0.000    
   5   8.0000E-10  5.0000E-10  1.0000E-10  1.0000E-10  1.0000E-10  1.0000E-10  1.0000E-10  1.0000E-10  1.0000E-10  1.0000E-10
   6   8.0000E-10  5.0000E-10  5.0000E-10  2.0000E-10  2.0000E-10  1.0000E-10  1.0000E-10  1.0000E-10  1.0000E-10  5.0000E-10
   7   8.0000E-10  5.0000E-10  5.0000E-10  2.0000E-10  2.0000E-10  1.0000E-10  1.0000E-10  2.0000E-10  2.0000E-10   0.000    
   8    0.000      5.0000E-10  5.0000E-10  2.0000E-10  2.0000E-10  1.0000E-10  1.0000E-10  2.0000E-10  5.0000E-10   0.000    
   9    0.000      5.0000E-10  5.0000E-10  2.0000E-10  2.0000E-10  1.0000E-10  1.0000E-10  2.0000E-10  5.0000E-10   0.000    
  10    0.000      5.0000E-10  5.0000E-10  2.0000E-10  2.0000E-10  1.0000E-10  1.0000E-10  2.0000E-10  5.0000E-10  8.0000E-10
  11    0.000      1.0000E-10  1.0000E-10  1.0000E-10  1.0000E-10  1.0000E-10  1.0000E-10  2.0000E-10  5.0000E-10   0.000    
  12   1.0000E-10  1.0000E-10  1.0000E-10  1.0000E-10  1.0000E-10  1.0000E-10  1.0000E-10  1.0000E-10  2.0000E-10   0.000    
  13   1.0000E-10  1.0000E-10  2.0000E-10  2.0000E-10  2.0000E-10  2.0000E-10  2.0000E-10  1.0000E-10  1.0000E-10   0.000    
  14    0.000      2.0000E-10  5.0000E-10  5.0000E-10  5.0000E-10  5.0000E-10  5.0000E-10  2.0000E-10  1.0000E-10   0.000    
  15    0.000       0.000      8.0000E-10  8.0000E-10  8.0000E-10  8.0000E-10   0.000       0.000       0.000       0.000    

                  ET RATE =  4.000000E-07

 USING ET EXTINCTION DEPTH FROM PREVIOUS STRESS PERIOD. CURRENT PERIOD IS:      20

 USING EXTINCTION WATER CONTENT FROM PREVIOUS STRESS PERIOD. CURRENT PERIOD IS:      20

 USING AIR ENTRY PRESSURE FROM PREVIOUS STRESS PERIOD. CURRENT PERIOD IS:      20

 USING ROOT PRESSURE HEAD FROM PREVIOUS STRESS PERIOD. CURRENT PERIOD IS:      20

 USING ROOT ACTIVITY FROM PREVIOUS STRESS PERIOD. CURRENT PERIOD IS:      20

 PROCESSING AG STRESS PERIOD DATA

 READING AG STRESS PERIOD DATA

 READING IRRIGATION WELL

 END PROCESSING AG STRESS PERIOD DATA OPTIONS
 
 SOLVING FOR HEAD 
                                                   Max.-Head-Change                         Max.-Flux-Residual
  Residual-Control   Outer-Iter.   Inner-Iter.     Column Row Layer    Maximum-Head-Change  Column Row Layer    Maximum-Flux-Residual          L2-NORM 
          0                 1           2             4    7     1      -0.1635816361E+00       4    7    1        -0.8553744028E+01      0.2003941538E+02
          0                 2           2             6    7     1       0.1325841948E-02       6    7    1         0.7272334195E-01      0.1996415016E+00
          0                 3           2             5    6     1      -0.1204083523E-01       4    7    1        -0.6488703792E+00      0.1582014349E+01
          0                 4           2             4    7     1      -0.9015525180E-02       5    7    1        -0.4987294657E+00      0.1188494006E+01
          0                 5           2             4    7     1      -0.7411257810E-02       5    7    1        -0.4097152501E+00      0.9811454908E+00
          0                 6           2             4    7     1      -0.6113647228E-02       5    7    1        -0.3379951616E+00      0.8089888441E+00
          0                 7           2             4    7     1      -0.5069725450E-02       5    7    1        -0.2802740657E+00      0.6709573518E+00
          0                 8           2             4    7     1      -0.4220778666E-02       5    7    1        -0.2333372316E+00      0.5586338733E+00
          0                 9           2             4    7     1      -0.3525112867E-02       5    7    1        -0.1948756920E+00      0.4665841040E+00
          0                10           2             4    7     1      -0.2951625440E-02       5    7    1        -0.1631697297E+00      0.3906925639E+00
                                                   Max.-Head-Change                         Max.-Flux-Residual
  Residual-Control   Outer-Iter.   Inner-Iter.     Column Row Layer    Maximum-Head-Change  Column Row Layer    Maximum-Flux-Residual          L2-NORM 
          0                11           2             4    7     1      -0.2476524533E-02       5    7    1        -0.1369036635E+00      0.3278156842E+00
          0                12           2             4    7     1      -0.2081423532E-02       5    7    1        -0.1150607656E+00      0.2755230765E+00
          0                13           2             4    7     1      -0.1751776842E-02       5    7    1        -0.9683674664E-01      0.2318912010E+00
          0                14           2             4    7     1      -0.1476045030E-02       5    7    1        -0.8159354428E-01      0.1953940585E+00
          0                15           2             4    7     1      -0.1244916529E-02       5    7    1        -0.6881630606E-01      0.1647998278E+00
          0                16           2             4    7     1      -0.1050803631E-02       5    7    1        -0.5808550418E-01      0.1391045782E+00
          0                17           2             4    7     1      -0.8875346717E-03       5    7    1        -0.4905990512E-01      0.1174917873E+00
          0                18           2             4    7     1      -0.7500554843E-03       5    7    1        -0.4146006803E-01      0.9929268204E-01
          0                19           2             4    7     1      -0.6341823171E-03       5    7    1        -0.3505468336E-01      0.8395355340E-01
          0                20           2             4    7     1      -0.5364045168E-03       5    7    1        -0.2964966232E-01      0.7100966011E-01
                                                   Max.-Head-Change                         Max.-Flux-Residual
  Residual-Control   Outer-Iter.   Inner-Iter.     Column Row Layer    Maximum-Head-Change  Column Row Layer    Maximum-Flux-Residual          L2-NORM 
          0                21           2             4    7     1      -0.4538753321E-03       5    7    1        -0.2508760959E-01      0.6008442810E-01
          0                22           2             4    7     1      -0.3841183943E-03       5    7    1        -0.2123163074E-01      0.5084978477E-01
          0                23           2             4    7     1      -0.3251780688E-03       5    7    1        -0.1797359427E-01      0.4304720868E-01
          0                24           2             4    7     1      -0.2753366663E-03       5    7    1        -0.1521854984E-01      0.3644908059E-01
          0                25           2             4    7     1      -0.2331779235E-03       5    7    1        -0.1288819761E-01      0.3086801673E-01
          0                26           2             4    7     1      -0.1974979469E-03       5    7    1        -0.1091598512E-01      0.2614460417E-01
          0                27           2             4    7     1      -0.1672915865E-03       5    7    1        -0.9246344441E-02      0.2214580809E-01
          0                28           2             4    7     1      -0.1417357052E-03       5    7    1        -0.7833768572E-02      0.1876272145E-01
          0                29           2             4    7     1      -0.1200688398E-03       5    7    1        -0.6636171348E-02      0.1589435415E-01
          0                30           1             4    7     1      -0.1017344658E-03       5    7    1        -0.5622777200E-02      0.1346728018E-01
          0                31           1             4    7     1      -0.8621949575E-04       5    7    1        -0.4765219452E-02      0.1141343525E-01

    ------------------------------------------------
       NWT REQUIRED           31 OUTER ITERATIONS 
       AND A TOTAL OF         60 INNER ITERATIONS.
    ------------------------------------------------

 OUTPUT CONTROL FOR STRESS PERIOD   20   TIME STEP    1
    PRINT BUDGET
    SAVE BUDGET
    SAVE BUDGET
    SAVE HEAD FOR ALL LAYERS
 UBDSV1 SAVING "         STORAGE" ON UNIT 102 AT TIME STEP  1, STRESS PERIOD  20
 UBDSV2 SAVING "   CONSTANT HEAD" ON UNIT 102 AT TIME STEP  1, STRESS PERIOD  20
 UBDSV1 SAVING "FLOW RIGHT FACE " ON UNIT 102 AT TIME STEP  1, STRESS PERIOD  20
 UBDSV1 SAVING "FLOW FRONT FACE " ON UNIT 102 AT TIME STEP  1, STRESS PERIOD  20

  HEAD DEP BOUNDS   PERIOD   20   STEP     1
 BOUNDARY      1   LAYER   1   ROW    13   COL     1   RATE   -0.295978    
 BOUNDARY      2   LAYER   1   ROW    14   COL     9   RATE    0.285505    



 STREAM LISTING     PERIOD     20   STEP        1

 LAYER ROW COL. STREAM  RCH.  FLOW INTO     FLOW TO   FLOW OUT OF   OVRLND.     DIRECT     STREAM       STREAM     STREAM     STREAM   STREAMBED  STREAMBED
                SEG.NO.  NO.  STRM. RCH.    AQUIFER    STRM. RCH.    RUNOFF     PRECIP       ET          HEAD       DEPTH      WIDTH   CONDCTNC.   GRADIENT

   1    1    1     1     1    5.4001E+01  3.5066E-01   5.3650E+01  0.000E+00  0.000E+00  0.000E+00  1.09450E+03  1.450E+00  1.751E+01  7.879E-02  1.483E+00
   1    2    2     1     2    5.3650E+01  5.4294E-01   5.3107E+01  0.000E+00  0.000E+00  0.000E+00  1.08950E+03  1.445E+00  1.745E+01  1.222E-01  1.482E+00
   1    3    3     1     3    5.3107E+01  4.6294E-01   5.2644E+01  0.000E+00  0.000E+00  0.000E+00  1.08386E+03  1.438E+00  1.739E+01  1.043E-01  1.479E+00
   1    3    4     1     4    5.2644E+01  4.2621E-01   5.2218E+01  0.000E+00  0.000E+00  0.000E+00  1.07884E+03  1.432E+00  1.733E+01  9.616E-02  1.477E+00
   1    4    5     2     1    5.0218E+01  3.7682E-01   4.9841E+01  0.000E+00  0.000E+00  0.000E+00  1.07376E+03  1.831E+00  1.200E+01  7.800E-02  1.610E+00
   1    5    6     2     2    4.9841E+01  2.8942E-01   4.9552E+01  0.000E+00  0.000E+00  0.000E+00  1.06833E+03  1.824E+00  1.200E+01  6.000E-02  1.608E+00
   1    6    6     2     3    4.9552E+01  2.8904E-01   4.9263E+01  0.000E+00  0.000E+00  0.000E+00  1.06361E+03  1.817E+00  1.200E+01  6.000E-02  1.606E+00
   1    7    6     2     4    4.9263E+01  2.8865E-01   4.8974E+01  0.000E+00  0.000E+00  0.000E+00  1.05889E+03  1.811E+00  1.200E+01  6.000E-02  1.604E+00
   1    8    6     2     5    4.8974E+01  2.8827E-01   4.8686E+01  0.000E+00  0.000E+00  0.000E+00  1.05416E+03  1.804E+00  1.200E+01  6.000E-02  1.601E+00
   1    3    5     3     1    2.0000E+00  2.8252E-01   1.7175E+00  0.000E+00  0.000E+00  0.000E+00  1.07555E+03  1.909E+00  9.636E+00  7.227E-02  1.955E+00
   1    3    6     3     2    1.7175E+00  2.4905E-01   1.4684E+00  0.000E+00  0.000E+00  0.000E+00  1.07264E+03  1.727E+00  8.909E+00  6.682E-02  1.864E+00
   1    3    7     3     3    1.4684E+00  1.9718E-01   1.2712E+00  0.000E+00  0.000E+00  0.000E+00  1.06987E+03  1.555E+00  8.218E+00  5.547E-02  1.777E+00
   1    4    8     3     4    1.2712E+00  2.2567E-01   1.0456E+00  0.000E+00  0.000E+00  0.000E+00  1.06682E+03  1.364E+00  7.455E+00  6.709E-02  1.682E+00
   1    5    8     3     5    1.0456E+00  1.5790E-01   8.8768E-01  0.000E+00  0.000E+00  0.000E+00  1.06362E+03  1.164E+00  6.655E+00  4.991E-02  1.582E+00
   1    6    8     3     6    8.8768E-01  5.5980E-02   8.3170E-01  0.000E+00  0.000E+00  0.000E+00  1.06158E+03  1.036E+00  6.145E+00  1.844E-02  1.518E+00
   1    5   10     4     1    1.0000E+01  9.0919E-02   9.9091E+00  0.000E+00  0.000E+00  0.000E+00  1.07836E+03  6.368E-01  1.000E+01  2.500E-02  1.212E+00
   1    5    9     4     2    9.9091E+00  1.8158E-01   9.7275E+00  0.000E+00  0.000E+00  0.000E+00  1.07154E+03  6.315E-01  1.000E+01  5.000E-02  1.211E+00
   1    6    8     4     3    9.7275E+00  1.2689E-01   9.6006E+00  0.000E+00  0.000E+00  0.000E+00  1.06381E+03  6.256E-01  1.000E+01  3.500E-02  1.209E+00
   1    6    8     5     1    1.0432E+01  2.2686E-01   1.0205E+01  0.000E+00  0.000E+00  0.000E+00  1.05868E+03  6.790E-01  1.542E+01  6.166E-02  1.226E+00
   1    7    7     5     2    1.0205E+01  2.7894E-01   9.9265E+00  0.000E+00  0.000E+00  0.000E+00  1.05417E+03  6.732E-01  1.519E+01  7.594E-02  1.224E+00
   1    8    7     5     3    9.9265E+00  1.9221E-01   9.7343E+00  0.000E+00  0.000E+00  0.000E+00  1.04992E+03  6.676E-01  1.497E+01  5.241E-02  1.223E+00
   1    8    6     5     4    9.7343E+00  1.3577E-01   9.5985E+00  0.000E+00  0.000E+00  0.000E+00  1.04691E+03  6.637E-01  1.482E+01  3.706E-02  1.221E+00
   1    9    6     6     1    5.8284E+01  3.0156E-01   5.7983E+01  0.000E+00  0.000E+00  0.000E+00  1.04475E+03  2.026E+00  1.200E+01  6.000E-02  1.675E+00
   1   10    7     6     2    5.7983E+01  3.0118E-01   5.7682E+01  0.000E+00  0.000E+00  0.000E+00  1.04020E+03  2.020E+00  1.200E+01  6.000E-02  1.673E+00
   1   11    7     6     3    5.7682E+01  3.0080E-01   5.7381E+01  0.000E+00  0.000E+00  0.000E+00  1.03565E+03  2.013E+00  1.200E+01  6.000E-02  1.671E+00
   1   12    7     6     4    5.7381E+01  3.0042E-01   5.7080E+01  0.000E+00  0.000E+00  0.000E+00  1.03110E+03  2.007E+00  1.200E+01  6.000E-02  1.669E+00
   1   13    7     6     5    5.7080E+01  1.9774E-02   5.7061E+01  0.000E+00  0.000E+00  0.000E+00  1.02791E+03  2.004E+00  1.200E+01  2.400E-02  2.746E-01
   1   14    9     7     1    1.5000E+02  1.3321E+00   1.4867E+02  0.000E+00  0.000E+00  0.000E+00  1.03987E+03  2.288E+00  5.529E+01  5.593E-01  7.939E-01
   1   13    8     7     2    1.4867E+02  1.8285E+00   1.4684E+02  0.000E+00  0.000E+00  0.000E+00  1.03478E+03  2.279E+00  5.526E+01  6.148E-01  9.914E-01
   1   13    7     7     3    1.4684E+02  1.4526E+00   1.4539E+02  0.000E+00  0.000E+00  0.000E+00  1.02969E+03  2.271E+00  5.522E+01  5.585E-01  8.670E-01
   1   13    6     8     1    2.0245E+02  1.0334E+00   2.0141E+02  0.000E+00  0.000E+00  0.000E+00  1.02502E+03  3.149E+00  4.566E+01  4.653E-01  7.403E-01
   1   13    5     8     2    2.0141E+02  2.3806E-01   2.0118E+02  0.000E+00  0.000E+00  0.000E+00  1.01877E+03  3.145E+00  4.561E+01  4.648E-01  1.707E-01
   1   13    4     8     3    2.0118E+02 -2.2507E+00   2.0343E+02  0.000E+00  0.000E+00  0.000E+00  1.01253E+03  3.151E+00  4.569E+01  4.656E+00 -1.611E-01
   1   13    3     8     4    2.0343E+02 -3.4343E+00   2.0686E+02  0.000E+00  0.000E+00  0.000E+00  1.00629E+03  3.168E+00  4.593E+01  4.681E+00 -2.446E-01
   1   13    2     8     5    2.0686E+02 -2.6034E+00   2.0946E+02  0.000E+00  0.000E+00  0.000E+00  1.00006E+03  3.185E+00  4.618E+01  4.706E+00 -1.844E-01
   1   13    1     8     6    2.0946E+02 -2.0289E+00   2.1149E+02  0.000E+00  0.000E+00  0.000E+00  9.95073E+02  3.198E+00  4.638E+01  2.836E+00 -2.385E-01



 UBDSV3 SAVING "           GW ET" ON UNIT  61 AT TIME STEP  1, STRESS PERIOD  20
 UBDSV3 SAVING "    UZF RECHARGE" ON UNIT  61 AT TIME STEP  1, STRESS PERIOD  20
 UBDSV3 SAVING " SURFACE LEAKAGE" ON UNIT  61 AT TIME STEP  1, STRESS PERIOD  20
 UBDSV3 SAVING "       HORT+DUNN" ON UNIT  61 AT TIME STEP  1, STRESS PERIOD  20
 UBDSV3 SAVING "  STORAGE CHANGE" ON UNIT  61 AT TIME STEP  1, STRESS PERIOD  20


UNSATURATED ZONE PACKAGE VOLUMETRIC BUDGET FOR  TIME STEP     1 STRESS PERIOD   20
  ------------------------------------------------------------------------------



     CUMULATIVE VOLUMES      L**3       RATES FOR THIS TIME STEP      L**3/T
     ------------------                 ------------------------

           IN:                                      IN:
           ---                                      ---
        INFILTRATION =   612290389.6835          INFILTRATION =          88.1754

          OUT:                                     OUT:
          ----                                     ----
              UZF ET =   537797374.1274                UZF ET =          60.7922
        UZF RECHARGE =    72022227.3421          UZF RECHARGE =       0.0000E+00

            IN - OUT =     2470788.2140              IN - OUT =          27.3832

          STORAGE:                                 STORAGE:
          --------                                 --------
      STORAGE CHANGE =     2470780.8409        STORAGE CHANGE =          27.3832

 PERCENT DISCREPANCY IS DIFFERENCE BETWEEN IN-OUT MINUS CHANGE IN STORAGE
 DIVIDED BY THE AVERAGE OF IN AND OUT TIMES 100

 PERCENT DISCREPANCY =           0.00     PERCENT DISCREPANCY =           0.00






 

            AG WELLS      PERIOD   20   STEP   1
 AG WELL      1   LAYER   1   ROW     6   COL     4   RATE    -14.5546    
 AG WELL      2   LAYER   1   ROW     6   COL     5   RATE    -14.5546    
 AG WELL      3   LAYER   1   ROW     7   COL     4   RATE    -14.5546    
 AG WELL      4   LAYER   1   ROW     7   COL     5   RATE    -14.5546    
 AG WELL      5   LAYER   1   ROW     8   COL     4   RATE    -14.5546    
 AG WELL      6   LAYER   1   ROW     8   COL     5   RATE    -14.5546    
 
 

        GW IRRIGATION     PERIOD   20   STEP   1
 AG WELL      1   ROW     6   COL     4   RATE     14.5546    
 AG WELL      2   ROW     6   COL     5   RATE     14.5546    
 AG WELL      3   ROW     7   COL     4   RATE     14.5546    
 AG WELL      4   ROW     7   COL     5   RATE     14.5546    
 AG WELL      5   ROW     8   COL     4   RATE     14.5546    
 AG WELL      6   ROW     8   COL     5   RATE     14.5546    
 
1
  VOLUMETRIC BUDGET FOR AGRICULTURAL FIELDS AT  END OF TIME STEP    1, STRESS PERIOD  20
  ------------------------------------------------------------------------------

     CUMULATIVE VOLUMES      L**3       RATES FOR THIS TIME STEP      L**3/T
     ------------------                 ------------------------

           IN:                                      IN:
           ---                                      ---
               AG WELLS  =   572021312.0000                 AG WELLS  =          87.3279
      DIVERSION SEGMENTS =           0.0000        DIVERSION SEGMENTS =           0.0000
           GW IRRIGATION =           0.0000             GW IRRIGATION =           0.0000
           SW IRRIGATION =           0.0000             SW IRRIGATION =           0.0000
        SYSTEM LOSSES GW =           0.0000          SYSTEM LOSSES GW =           0.0000
        SYSTEM LOSSES SW =           0.0000          SYSTEM LOSSES SW =           0.0000

                TOTAL IN =   572021312.0000                  TOTAL IN =          87.3279

          OUT:                                     OUT:
          ----                                     ----
               AG WELLS  =           0.0000                 AG WELLS  =           0.0000
      DIVERSION SEGMENTS =           0.0000        DIVERSION SEGMENTS =           0.0000
           GW IRRIGATION =   572021312.0000             GW IRRIGATION =          87.3279
           SW IRRIGATION =           0.0000             SW IRRIGATION =           0.0000
        SYSTEM LOSSES GW =           0.0000          SYSTEM LOSSES GW =           0.0000
        SYSTEM LOSSES SW =           0.0000          SYSTEM LOSSES SW =           0.0000

               TOTAL OUT =   572021312.0000                 TOTAL OUT =          87.3279

                IN - OUT =           0.0000                  IN - OUT =           0.0000

     PERCENT DISCREPANCY =           0.00         PERCENT DISCREPANCY =           0.00




 HEAD WILL BE SAVED ON UNIT   62 AT END OF TIME STEP    1, STRESS PERIOD   20
1
  VOLUMETRIC BUDGET FOR ENTIRE MODEL AT END OF TIME STEP    1, STRESS PERIOD  20
  ------------------------------------------------------------------------------

     CUMULATIVE VOLUMES      L**3       RATES FOR THIS TIME STEP      L**3/T
     ------------------                 ------------------------

           IN:                                      IN:
           ---                                      ---
             STORAGE     =   720615104.0000               STORAGE     =          85.9183
       CONSTANT HEAD     =           0.0000         CONSTANT HEAD     =           0.0000
     HEAD DEP BOUNDS     =    13561293.0000       HEAD DEP BOUNDS     =           0.2855
      STREAM LEAKAGE     =   597320896.0000        STREAM LEAKAGE     =          12.8248
        UZF RECHARGE     =    72022192.0000          UZF RECHARGE     =           0.0000
               GW ET     =           0.0000                 GW ET     =           0.0000
     SURFACE LEAKAGE     =           0.0000       SURFACE LEAKAGE     =           0.0000
           AG WELLS      =           0.0000             AG WELLS      =           0.0000

                TOTAL IN =  1403519360.0000                  TOTAL IN =          99.0286

          OUT:                                     OUT:
          ----                                     ----
             STORAGE     =   311741280.0000               STORAGE     =           0.3654
       CONSTANT HEAD     =           0.0000         CONSTANT HEAD     =           0.0000
     HEAD DEP BOUNDS     =    14004762.0000       HEAD DEP BOUNDS     =           0.2960
      STREAM LEAKAGE     =   489197376.0000        STREAM LEAKAGE     =          10.3172
        UZF RECHARGE     =           0.0000          UZF RECHARGE     =           0.0000
               GW ET     =    16549168.0000                 GW ET     =           0.7204
     SURFACE LEAKAGE     =           0.0000       SURFACE LEAKAGE     =           0.0000
           AG WELLS      =   572021312.0000             AG WELLS      =          87.3279

               TOTAL OUT =  1403513856.0000                 TOTAL OUT =          99.0269

                IN - OUT =        5504.0000                  IN - OUT =       1.6632E-03

     PERCENT DISCREPANCY =           0.00         PERCENT DISCREPANCY =           0.00






         TIME SUMMARY AT END OF TIME STEP    1 IN STRESS PERIOD   20
                    SECONDS     MINUTES      HOURS       DAYS        YEARS
                    -----------------------------------------------------------
   TIME STEP LENGTH  87667.      1461.1      24.352      1.0147     2.77799E-03
 STRESS PERIOD TIME  87667.      1461.1      24.352      1.0147     2.77799E-03
         TOTAL TIME 4.75142E+07 7.91903E+05  13198.      549.93      1.5056    
1
 
 SOLVING FOR HEAD 
                                                   Max.-Head-Change                         Max.-Flux-Residual
  Residual-Control   Outer-Iter.   Inner-Iter.     Column Row Layer    Maximum-Head-Change  Column Row Layer    Maximum-Flux-Residual          L2-NORM 
          0                 1           2             4    7     1      -0.1620299052E+00       4    7    1        -0.8477616964E+01      0.1953834518E+02
          0                 2           2             6    7     1       0.1612698679E-02       6    7    1         0.8875784099E-01      0.2422357493E+00
          0                 3           2             5    7     1      -0.1223114664E-01       4    7    1        -0.6483449036E+00      0.1577187544E+01
          0                 4           2             4    7     1      -0.9015969107E-02       4    7    1        -0.4991578593E+00      0.1141867713E+01
          0                 5           2             4    7     1      -0.7411260457E-02       4    7    1        -0.4100558827E+00      0.9495995737E+00
          0                 6           2             4    7     1      -0.6113664180E-02       4    7    1        -0.3382801150E+00      0.7823903121E+00
          0                 7           2             4    7     1      -0.5069738890E-02       4    7    1        -0.2805085211E+00      0.6490782309E+00
          0                 8           2             4    7     1      -0.4220789870E-02       4    7    1        -0.2335318010E+00      0.5404769529E+00
          0                 9           2             4    7     1      -0.3525122217E-02       4    7    1        -0.1950377070E+00      0.4514650854E+00
          0                10           2             4    7     1      -0.2951633265E-02       4    7    1        -0.1633050612E+00      0.3780636334E+00
                                                   Max.-Head-Change                         Max.-Flux-Residual
  Residual-Control   Outer-Iter.   Inner-Iter.     Column Row Layer    Maximum-Head-Change  Column Row Layer    Maximum-Flux-Residual          L2-NORM 
          0                11           2             4    7     1      -0.2476531095E-02       4    7    1        -0.1370169871E+00      0.3172405065E+00
          0                12           2             4    7     1      -0.2081429045E-02       4    7    1        -0.1151558509E+00      0.2666498733E+00
          0                13           2             4    7     1      -0.1751781481E-02       4    7    1        -0.9691666138E-01      0.2244336877E+00
          0                14           2             4    7     1      -0.1476048938E-02       4    7    1        -0.8166079971E-01      0.1891178955E+00
          0                15           2             4    7     1      -0.1244919825E-02       4    7    1        -0.6887297180E-01      0.1595118789E+00
          0                16           2             4    7     1      -0.1050806412E-02       4    7    1        -0.5813329287E-01      0.1346450207E+00
          0                17           2             4    7     1      -0.8875370202E-03       4    7    1        -0.4910023829E-01      0.1137279673E+00
          0                18           2             4    7     1      -0.7500574693E-03       4    7    1        -0.4149413054E-01      0.9611403305E-01
          0                19           2             4    7     1      -0.6341839950E-03       4    7    1        -0.3508346602E-01      0.8126760966E-01
          0                20           2             4    7     1      -0.5364059359E-03       4    7    1        -0.2967399529E-01      0.6873895430E-01
                                                   Max.-Head-Change                         Max.-Flux-Residual
  Residual-Control   Outer-Iter.   Inner-Iter.     Column Row Layer    Maximum-Head-Change  Column Row Layer    Maximum-Flux-Residual          L2-NORM 
          0                21           2             4    7     1      -0.4538765328E-03       4    7    1        -0.2510818795E-01      0.5816409674E-01
          0                22           2             4    7     1      -0.3841194103E-03       4    7    1        -0.2124904055E-01      0.4922513616E-01
          0                23           2             4    7     1      -0.3251789288E-03       4    7    1        -0.1798832595E-01      0.4167248008E-01
          0                24           2             4    7     1      -0.2753373948E-03       4    7    1        -0.1523101920E-01      0.3528546749E-01
          0                25           2             4    7     1      -0.2331785400E-03       4    7    1        -0.1289875405E-01      0.2988291449E-01
          0                26           2             4    7     1      -0.1974984692E-03       4    7    1        -0.1092492374E-01      0.2531047237E-01
          0                27           2             4    7     1      -0.1672920294E-03       4    7    1        -0.9253914046E-02      0.2143943126E-01
          0                28           2             4    7     1      -0.1417360802E-03       4    7    1        -0.7840179332E-02      0.1816448498E-01
          0                29           2             4    7     1      -0.1200691571E-03       4    7    1        -0.6641601933E-02      0.1538758443E-01
          0                30           1             4    7     1      -0.1017347346E-03       4    7    1        -0.5627376706E-02      0.1303806486E-01
          0                31           1             4    7     1      -0.8621972408E-04       4    7    1        -0.4769125361E-02      0.1104981709E-01

    ------------------------------------------------
       NWT REQUIRED           31 OUTER ITERATIONS 
       AND A TOTAL OF         60 INNER ITERATIONS.
    ------------------------------------------------

 NO OUTPUT CONTROL FOR STRESS PERIOD   20   TIME STEP    2
 
 SOLVING FOR HEAD 
                                                   Max.-Head-Change                         Max.-Flux-Residual
  Residual-Control   Outer-Iter.   Inner-Iter.     Column Row Layer    Maximum-Head-Change  Column Row Layer    Maximum-Flux-Residual          L2-NORM 
          0                 1           2             4    7     1      -0.1603997343E+00       4    7    1        -0.8396994911E+01      0.1906866250E+02
          0                 2           2             6    7     1       0.1886545968E-02       6    7    1         0.1040801678E+00      0.2948782330E+00
          0                 3           2             5    7     1      -0.1219694459E-01       4    7    1        -0.6478068919E+00      0.1572036740E+01
          0                 4           2             4    7     1      -0.9016436610E-02       4    7    1        -0.4991738367E+00      0.1142363040E+01
          0                 5           2             4    7     1      -0.7411263445E-02       4    7    1        -0.4100551694E+00      0.9495506441E+00
          0                 6           2             4    7     1      -0.6113682299E-02       4    7    1        -0.3382796076E+00      0.7823951687E+00
          0                 7           2             4    7     1      -0.5069753271E-02       4    7    1        -0.2805081481E+00      0.6490777420E+00
          0                 8           2             4    7     1      -0.4220801870E-02       4    7    1        -0.2335314848E+00      0.5404769982E+00
          0                 9           2             4    7     1      -0.3525132238E-02       4    7    1        -0.1950374445E+00      0.4514650779E+00
          0                10           2             4    7     1      -0.2951641655E-02       4    7    1        -0.1633048419E+00      0.3780636317E+00
                                                   Max.-Head-Change                         Max.-Flux-Residual
  Residual-Control   Outer-Iter.   Inner-Iter.     Column Row Layer    Maximum-Head-Change  Column Row Layer    Maximum-Flux-Residual          L2-NORM 
          0                11           2             4    7     1      -0.2476538135E-02       4    7    1        -0.1370168034E+00      0.3172405046E+00
          0                12           2             4    7     1      -0.2081434962E-02       4    7    1        -0.1151556968E+00      0.2666498718E+00
          0                13           2             4    7     1      -0.1751786461E-02       4    7    1        -0.9691653184E-01      0.2244336864E+00
          0                14           2             4    7     1      -0.1476053133E-02       4    7    1        -0.8166069067E-01      0.1891178944E+00
          0                15           2             4    7     1      -0.1244923364E-02       4    7    1        -0.6887287994E-01      0.1595118780E+00
          0                16           2             4    7     1      -0.1050809399E-02       4    7    1        -0.5813321540E-01      0.1346450200E+00
          0                17           2             4    7     1      -0.8875395436E-03       4    7    1        -0.4910017291E-01      0.1137279667E+00
          0                18           2             4    7     1      -0.7500596009E-03       4    7    1        -0.4149407530E-01      0.9611403248E-01
          0                19           2             4    7     1      -0.6341857978E-03       4    7    1        -0.3508341937E-01      0.8126760920E-01
          0                20           2             4    7     1      -0.5364074608E-03       4    7    1        -0.2967395585E-01      0.6873895392E-01
                                                   Max.-Head-Change                         Max.-Flux-Residual
  Residual-Control   Outer-Iter.   Inner-Iter.     Column Row Layer    Maximum-Head-Change  Column Row Layer    Maximum-Flux-Residual          L2-NORM 
          0                21           2             4    7     1      -0.4538778229E-03       4    7    1        -0.2510815459E-01      0.5816409641E-01
          0                22           2             4    7     1      -0.3841205023E-03       4    7    1        -0.2124901233E-01      0.4922513588E-01
          0                23           2             4    7     1      -0.3251798532E-03       4    7    1        -0.1798830207E-01      0.4167247984E-01
          0                24           2             4    7     1      -0.2753381775E-03       4    7    1        -0.1523099898E-01      0.3528546728E-01
          0                25           2             4    7     1      -0.2331792029E-03       4    7    1        -0.1289873693E-01      0.2988291432E-01
          0                26           2             4    7     1      -0.1974990307E-03       4    7    1        -0.1092490925E-01      0.2531047222E-01
          0                27           2             4    7     1      -0.1672925048E-03       4    7    1        -0.9253901771E-02      0.2143943112E-01
          0                28           2             4    7     1      -0.1417364829E-03       4    7    1        -0.7840168944E-02      0.1816448488E-01
          0                29           2             4    7     1      -0.1200694984E-03       4    7    1        -0.6641593145E-02      0.1538758434E-01
          0                30           1             4    7     1      -0.1017350243E-03       4    7    1        -0.5627369266E-02      0.1303806478E-01
          0                31           1             4    7     1      -0.8621996875E-04       4    7    1        -0.4769119025E-02      0.1104981700E-01

    ------------------------------------------------
       NWT REQUIRED           31 OUTER ITERATIONS 
       AND A TOTAL OF         60 INNER ITERATIONS.
    ------------------------------------------------

 NO OUTPUT CONTROL FOR STRESS PERIOD   20   TIME STEP    3
 
 SOLVING FOR HEAD 
                                                   Max.-Head-Change                         Max.-Flux-Residual
  Residual-Control   Outer-Iter.   Inner-Iter.     Column Row Layer    Maximum-Head-Change  Column Row Layer    Maximum-Flux-Residual          L2-NORM 
          0                 1           2             4    7     1      -0.1586987223E+00       4    7    1        -0.8312295423E+01      0.1862727013E+02
          0                 2           2             6    7     1       0.2147721203E-02       6    7    1         0.1187070967E+00      0.3507335591E+00
          0                 3           2             5    7     1      -0.1216324418E-01       4    7    1        -0.6472396872E+00      0.1567076270E+01
          0                 4           2             4    7     1      -0.9016924948E-02       4    7    1        -0.4991911549E+00      0.1142839807E+01
          0                 5           2             4    7     1      -0.7411267001E-02       4    7    1        -0.4100543990E+00      0.9495036064E+00
          0                 6           2             4    7     1      -0.6113701566E-02       4    7    1        -0.3382791131E+00      0.7823998376E+00
          0                 7           2             4    7     1      -0.5069768576E-02       4    7    1        -0.2805077820E+00      0.6490772738E+00
          0                 8           2             4    7     1      -0.4220814640E-02       4    7    1        -0.2335311746E+00      0.5404770429E+00
          0                 9           2             4    7     1      -0.3525142902E-02       4    7    1        -0.1950371869E+00      0.4514650717E+00
          0                10           2             4    7     1      -0.2951650585E-02       4    7    1        -0.1633046266E+00      0.3780636309E+00
                                                   Max.-Head-Change                         Max.-Flux-Residual
  Residual-Control   Outer-Iter.   Inner-Iter.     Column Row Layer    Maximum-Head-Change  Column Row Layer    Maximum-Flux-Residual          L2-NORM 
          0                11           2             4    7     1      -0.2476545627E-02       4    7    1        -0.1370166232E+00      0.3172405035E+00
          0                12           2             4    7     1      -0.2081441259E-02       4    7    1        -0.1151555455E+00      0.2666498709E+00
          0                13           2             4    7     1      -0.1751791760E-02       4    7    1        -0.9691640475E-01      0.2244336857E+00
          0                14           2             4    7     1      -0.1476057599E-02       4    7    1        -0.8166058371E-01      0.1891178938E+00
          0                15           2             4    7     1      -0.1244927130E-02       4    7    1        -0.6887278980E-01      0.1595118775E+00
          0                16           2             4    7     1      -0.1050812578E-02       4    7    1        -0.5813313941E-01      0.1346450196E+00
          0                17           2             4    7     1      -0.8875422287E-03       4    7    1        -0.4910010876E-01      0.1137279663E+00
          0                18           2             4    7     1      -0.7500618701E-03       4    7    1        -0.4149402113E-01      0.9611403219E-01
          0                19           2             4    7     1      -0.6341877163E-03       4    7    1        -0.3508337359E-01      0.8126760896E-01
          0                20           2             4    7     1      -0.5364090832E-03       4    7    1        -0.2967391715E-01      0.6873895371E-01
                                                   Max.-Head-Change                         Max.-Flux-Residual
  Residual-Control   Outer-Iter.   Inner-Iter.     Column Row Layer    Maximum-Head-Change  Column Row Layer    Maximum-Flux-Residual          L2-NORM 
          0                21           2             4    7     1      -0.4538791964E-03       4    7    1        -0.2510812189E-01      0.5816409625E-01
          0                22           2             4    7     1      -0.3841216644E-03       4    7    1        -0.2124898464E-01      0.4922513573E-01
          0                23           2             4    7     1      -0.3251808368E-03       4    7    1        -0.1798827863E-01      0.4167247971E-01
          0                24           2             4    7     1      -0.2753390105E-03       4    7    1        -0.1523097915E-01      0.3528546718E-01
          0                25           2             4    7     1      -0.2331799082E-03       4    7    1        -0.1289872014E-01      0.2988291422E-01
          0                26           2             4    7     1      -0.1974996284E-03       4    7    1        -0.1092489504E-01      0.2531047215E-01
          0                27           2             4    7     1      -0.1672930109E-03       4    7    1        -0.9253889727E-02      0.2143943105E-01
          0                28           2             4    7     1      -0.1417369117E-03       4    7    1        -0.7840158737E-02      0.1816448484E-01
          0                29           2             4    7     1      -0.1200698617E-03       4    7    1        -0.6641584499E-02      0.1538758429E-01
          0                30           1             4    7     1      -0.1017353319E-03       4    7    1        -0.5627361938E-02      0.1303806474E-01
          0                31           1             4    7     1      -0.8622022952E-04       4    7    1        -0.4769112829E-02      0.1104981697E-01

    ------------------------------------------------
       NWT REQUIRED           31 OUTER ITERATIONS 
       AND A TOTAL OF         60 INNER ITERATIONS.
    ------------------------------------------------

 NO OUTPUT CONTROL FOR STRESS PERIOD   20   TIME STEP    4
 
 SOLVING FOR HEAD 
                                                   Max.-Head-Change                         Max.-Flux-Residual
  Residual-Control   Outer-Iter.   Inner-Iter.     Column Row Layer    Maximum-Head-Change  Column Row Layer    Maximum-Flux-Residual          L2-NORM 
          0                 1           2             4    7     1      -0.1569340944E+00       4    7    1        -0.8223916475E+01      0.1821172695E+02
          0                 2           2             5    8     1      -0.2588561886E-02       5    8    1        -0.1448456796E+00      0.4068952576E+00
          0                 3           2             5    7     1      -0.1213007562E-01       4    7    1        -0.6466460840E+00      0.1562295713E+01
          0                 4           2             4    7     1      -0.9017432032E-02       4    7    1        -0.4992096969E+00      0.1143298938E+01
          0                 5           2             4    7     1      -0.7411271098E-02       4    7    1        -0.4100535764E+00      0.9494583650E+00
          0                 6           2             4    7     1      -0.6113721889E-02       4    7    1        -0.3382786308E+00      0.7824043284E+00
          0                 7           2             4    7     1      -0.5069784732E-02       4    7    1        -0.2805074226E+00      0.6490768252E+00
          0                 8           2             4    7     1      -0.4220828119E-02       4    7    1        -0.2335308702E+00      0.5404770871E+00
          0                 9           2             4    7     1      -0.3525154159E-02       4    7    1        -0.1950369342E+00      0.4514650669E+00
          0                10           2             4    7     1      -0.2951660010E-02       4    7    1        -0.1633044154E+00      0.3780636310E+00
                                                   Max.-Head-Change                         Max.-Flux-Residual
  Residual-Control   Outer-Iter.   Inner-Iter.     Column Row Layer    Maximum-Head-Change  Column Row Layer    Maximum-Flux-Residual          L2-NORM 
          0                11           2             4    7     1      -0.2476553535E-02       4    7    1        -0.1370164463E+00      0.3172405032E+00
          0                12           2             4    7     1      -0.2081447905E-02       4    7    1        -0.1151553971E+00      0.2666498707E+00
          0                13           2             4    7     1      -0.1751797354E-02       4    7    1        -0.9691628003E-01      0.2244336855E+00
          0                14           2             4    7     1      -0.1476062312E-02       4    7    1        -0.8166047875E-01      0.1891178937E+00
          0                15           2             4    7     1      -0.1244931105E-02       4    7    1        -0.6887270137E-01      0.1595118774E+00
          0                16           2             4    7     1      -0.1050815933E-02       4    7    1        -0.5813306480E-01      0.1346450195E+00
          0                17           2             4    7     1      -0.8875450624E-03       4    7    1        -0.4910004579E-01      0.1137279663E+00
          0                18           2             4    7     1      -0.7500642651E-03       4    7    1        -0.4149396796E-01      0.9611403213E-01
          0                19           2             4    7     1      -0.6341897415E-03       4    7    1        -0.3508332867E-01      0.8126760891E-01
          0                20           2             4    7     1      -0.5364107964E-03       4    7    1        -0.2967387917E-01      0.6873895367E-01
                                                   Max.-Head-Change                         Max.-Flux-Residual
  Residual-Control   Outer-Iter.   Inner-Iter.     Column Row Layer    Maximum-Head-Change  Column Row Layer    Maximum-Flux-Residual          L2-NORM 
          0                21           2             4    7     1      -0.4538806455E-03       4    7    1        -0.2510808975E-01      0.5816409621E-01
          0                22           2             4    7     1      -0.3841228911E-03       4    7    1        -0.2124895746E-01      0.4922513572E-01
          0                23           2             4    7     1      -0.3251818752E-03       4    7    1        -0.1798825563E-01      0.4167247971E-01
          0                24           2             4    7     1      -0.2753398896E-03       4    7    1        -0.1523095967E-01      0.3528546717E-01
          0                25           2             4    7     1      -0.2331806528E-03       4    7    1        -0.1289870365E-01      0.2988291420E-01
          0                26           2             4    7     1      -0.1975002585E-03       4    7    1        -0.1092488108E-01      0.2531047215E-01
          0                27           2             4    7     1      -0.1672935453E-03       4    7    1        -0.9253877924E-02      0.2143943104E-01
          0                28           2             4    7     1      -0.1417373643E-03       4    7    1        -0.7840148741E-02      0.1816448482E-01
          0                29           2             4    7     1      -0.1200702451E-03       4    7    1        -0.6641576028E-02      0.1538758429E-01
          0                30           1             4    7     1      -0.1017356568E-03       4    7    1        -0.5627354767E-02      0.1303806474E-01
          0                31           1             4    7     1      -0.8622050496E-04       4    7    1        -0.4769106752E-02      0.1104981698E-01

    ------------------------------------------------
       NWT REQUIRED           31 OUTER ITERATIONS 
       AND A TOTAL OF         60 INNER ITERATIONS.
    ------------------------------------------------

 NO OUTPUT CONTROL FOR STRESS PERIOD   20   TIME STEP    5
 
 SOLVING FOR HEAD 
                                                   Max.-Head-Change                         Max.-Flux-Residual
  Residual-Control   Outer-Iter.   Inner-Iter.     Column Row Layer    Maximum-Head-Change  Column Row Layer    Maximum-Flux-Residual          L2-NORM 
          0                 1           2             4    7     1      -0.1551125103E+00       4    7    1        -0.8132225322E+01      0.1781998295E+02
          0                 2           2             5    8     1      -0.3085103208E-02       5    8    1        -0.1721048000E+00      0.4621133896E+00
          0                 3           2             5    7     1      -0.1209746567E-01       4    7    1        -0.6460286623E+00      0.1557685464E+01
          0                 4           2             4    7     1      -0.9017955935E-02       4    7    1        -0.4992293548E+00      0.1143741300E+01
          0                 5           2             4    7     1      -0.7411275706E-02       4    7    1        -0.4100527056E+00      0.9494148288E+00
          0                 6           2             4    7     1      -0.6113743182E-02       4    7    1        -0.3382781604E+00      0.7824086501E+00
          0                 7           2             4    7     1      -0.5069801669E-02       4    7    1        -0.2805070697E+00      0.6490763952E+00
          0                 8           2             4    7     1      -0.4220842250E-02       4    7    1        -0.2335305714E+00      0.5404771309E+00
          0                 9           2             4    7     1      -0.3525165959E-02       4    7    1        -0.1950366860E+00      0.4514650632E+00
          0                10           2             4    7     1      -0.2951669891E-02       4    7    1        -0.1633042081E+00      0.3780636320E+00
                                                   Max.-Head-Change                         Max.-Flux-Residual
  Residual-Control   Outer-Iter.   Inner-Iter.     Column Row Layer    Maximum-Head-Change  Column Row Layer    Maximum-Flux-Residual          L2-NORM 
          0                11           2             4    7     1      -0.2476561825E-02       4    7    1        -0.1370162727E+00      0.3172405036E+00
          0                12           2             4    7     1      -0.2081454873E-02       4    7    1        -0.1151552515E+00      0.2666498711E+00
          0                13           2             4    7     1      -0.1751803218E-02       4    7    1        -0.9691615759E-01      0.2244336858E+00
          0                14           2             4    7     1      -0.1476067253E-02       4    7    1        -0.8166037570E-01      0.1891178940E+00
          0                15           2             4    7     1      -0.1244935273E-02       4    7    1        -0.6887261454E-01      0.1595118776E+00
          0                16           2             4    7     1      -0.1050819451E-02       4    7    1        -0.5813299159E-01      0.1346450197E+00
          0                17           2             4    7     1      -0.8875480337E-03       4    7    1        -0.4909998401E-01      0.1137279664E+00
          0                18           2             4    7     1      -0.7500667760E-03       4    7    1        -0.4149391577E-01      0.9611403227E-01
          0                19           2             4    7     1      -0.6341918645E-03       4    7    1        -0.3508328456E-01      0.8126760904E-01
          0                20           2             4    7     1      -0.5364125916E-03       4    7    1        -0.2967384188E-01      0.6873895376E-01
                                                   Max.-Head-Change                         Max.-Flux-Residual
  Residual-Control   Outer-Iter.   Inner-Iter.     Column Row Layer    Maximum-Head-Change  Column Row Layer    Maximum-Flux-Residual          L2-NORM 
          0                21           2             4    7     1      -0.4538821653E-03       4    7    1        -0.2510805823E-01      0.5816409630E-01
          0                22           2             4    7     1      -0.3841241766E-03       4    7    1        -0.2124893078E-01      0.4922513578E-01
          0                23           2             4    7     1      -0.3251829639E-03       4    7    1        -0.1798823307E-01      0.4167247977E-01
          0                24           2             4    7     1      -0.2753408110E-03       4    7    1        -0.1523094057E-01      0.3528546721E-01
          0                25           2             4    7     1      -0.2331814336E-03       4    7    1        -0.1289868750E-01      0.2988291425E-01
          0                26           2             4    7     1      -0.1975009199E-03       4    7    1        -0.1092486739E-01      0.2531047219E-01
          0                27           2             4    7     1      -0.1672941051E-03       4    7    1        -0.9253866315E-02      0.2143943108E-01
          0                28           2             4    7     1      -0.1417378388E-03       4    7    1        -0.7840138911E-02      0.1816448488E-01
          0                29           2             4    7     1      -0.1200706469E-03       4    7    1        -0.6641567695E-02      0.1538758432E-01
          0                30           1             4    7     1      -0.1017359972E-03       4    7    1        -0.5627347713E-02      0.1303806478E-01
          0                31           1             4    7     1      -0.8622079366E-04       4    7    1        -0.4769100784E-02      0.1104981702E-01

    ------------------------------------------------
       NWT REQUIRED           31 OUTER ITERATIONS 
       AND A TOTAL OF         60 INNER ITERATIONS.
    ------------------------------------------------

 NO OUTPUT CONTROL FOR STRESS PERIOD   20   TIME STEP    6
 
 SOLVING FOR HEAD 
                                                   Max.-Head-Change                         Max.-Flux-Residual
  Residual-Control   Outer-Iter.   Inner-Iter.     Column Row Layer    Maximum-Head-Change  Column Row Layer    Maximum-Flux-Residual          L2-NORM 
          0                 1           2             4    7     1      -0.1532404766E+00       4    7    1        -0.8037581883E+01      0.1745024081E+02
          0                 2           2             5    8     1      -0.3555561851E-02       5    8    1        -0.1979083191E+00      0.5158374950E+00
          0                 3           2             4    7     1      -0.1235153115E-01       4    7    1        -0.6452361562E+00      0.1553175378E+01
          0                 4           2             4    7     1      -0.8800593998E-02       5    8    1        -0.4613436662E+00      0.1128068933E+01
          0                 5           2             4    7     1      -0.7341757703E-02       4    7    1        -0.3833020354E+00      0.9386072668E+00
          0                 6           2             4    7     1      -0.6047011853E-02       5    6    1        -0.3157116090E+00      0.7733232615E+00
          0                 7           2             4    7     1      -0.5017202030E-02       4    7    1        -0.2619376527E+00      0.6416014369E+00
          0                 8           2             4    7     1      -0.4177908121E-02       4    7    1        -0.2181198173E+00      0.5342747051E+00
          0                 9           2             4    7     1      -0.3489973573E-02       4    7    1        -0.1822041938E+00      0.4463007616E+00
          0                10           2             4    7     1      -0.2922643680E-02       4    7    1        -0.1525850850E+00      0.3737501611E+00
                                                   Max.-Head-Change                         Max.-Flux-Residual
  Residual-Control   Outer-Iter.   Inner-Iter.     Column Row Layer    Maximum-Head-Change  Column Row Layer    Maximum-Flux-Residual          L2-NORM 
          0                11           2             4    7     1      -0.2452507069E-02       4    7    1        -0.1280402365E+00      0.3136286881E+00
          0                12           2             4    7     1      -0.2061446066E-02       4    7    1        -0.1076237611E+00      0.2636194747E+00
          0                13           2             4    7     1      -0.1735106326E-02       4    7    1        -0.9058624797E-01      0.2218868710E+00
          0                14           2             4    7     1      -0.1462099988E-02       4    7    1        -0.7633316048E-01      0.1869745885E+00
          0                15           2             4    7     1      -0.1233226831E-02       4    7    1        -0.6438417405E-01      0.1577060946E+00
          0                16           2             4    7     1      -0.1040985878E-02       4    7    1        -0.5434767829E-01      0.1331221583E+00
          0                17           2             4    7     1      -0.8792771767E-03       4    7    1        -0.4590520737E-01      0.1124427122E+00
          0                18           2             4    7     1      -0.7431028103E-03       4    7    1        -0.3879583049E-01      0.9502861869E-01
          0                19           2             4    7     1      -0.6283228036E-03       4    7    1        -0.3280340816E-01      0.8035045394E-01
          0                20           2             4    7     1      -0.5314603218E-03       4    7    1        -0.2774642212E-01      0.6796359757E-01
                                                   Max.-Head-Change                         Max.-Flux-Residual
  Residual-Control   Outer-Iter.   Inner-Iter.     Column Row Layer    Maximum-Head-Change  Column Row Layer    Maximum-Flux-Residual          L2-NORM 
          0                21           2             4    7     1      -0.4497028903E-03       4    7    1        -0.2347803899E-01      0.5750838789E-01
          0                22           2             4    7     1      -0.3805917353E-03       4    7    1        -0.1986989132E-01      0.4867039463E-01
          0                23           2             4    7     1      -0.3221989833E-03       4    7    1        -0.1682132891E-01      0.4120308000E-01
          0                24           2             4    7     1      -0.2728176732E-03       4    7    1        -0.1424323489E-01      0.3488815612E-01
          0                25           2             4    7     1      -0.2310475550E-03       4    7    1        -0.1206250514E-01      0.2954655791E-01
          0                26           2             4    7     1      -0.1956951757E-03       4    7    1        -0.1021683202E-01      0.2502566578E-01
          0                27           2             4    7     1      -0.1657656057E-03       4    7    1        -0.8654272336E-02      0.2119824690E-01
          0                28           2             4    7     1      -0.1404449967E-03       4    7    1        -0.7332336798E-02      0.1796022591E-01
          0                29           2             4    7     1      -0.1189744609E-03       4    7    1        -0.6211405432E-02      0.1521455564E-01
          0                30           1             4    7     1      -0.1008088152E-03       4    7    1        -0.5263015362E-02      0.1289151717E-01
          0                31           1             4    7     1      -0.8543630405E-04       4    7    1        -0.4460449084E-02      0.1092566759E-01

    ------------------------------------------------
       NWT REQUIRED           31 OUTER ITERATIONS 
       AND A TOTAL OF         60 INNER ITERATIONS.
    ------------------------------------------------

 NO OUTPUT CONTROL FOR STRESS PERIOD   20   TIME STEP    7
 
 SOLVING FOR HEAD 
                                                   Max.-Head-Change                         Max.-Flux-Residual
  Residual-Control   Outer-Iter.   Inner-Iter.     Column Row Layer    Maximum-Head-Change  Column Row Layer    Maximum-Flux-Residual          L2-NORM 
          0                 1           2             4    7     1      -0.1513237238E+00       4    7    1        -0.7940303117E+01      0.1710092459E+02
          0                 2           2             5    8     1      -0.4001687034E-02       5    8    1        -0.2223546894E+00      0.5677080667E+00
          0                 3           2             4    7     1      -0.1233240151E-01       4    7    1        -0.6442644861E+00      0.1548754215E+01
          0                 4           2             4    7     1      -0.8802543291E-02       5    8    1        -0.4615858862E+00      0.1128514613E+01
          0                 5           2             4    7     1      -0.7341592524E-02       4    7    1        -0.3832923413E+00      0.9385627965E+00
          0                 6           2             4    7     1      -0.6047052909E-02       5    6    1        -0.3157139564E+00      0.7733277010E+00
          0                 7           2             4    7     1      -0.5017218268E-02       4    7    1        -0.2619375556E+00      0.6416009892E+00
          0                 8           2             4    7     1      -0.4177923431E-02       4    7    1        -0.2181198268E+00      0.5342747467E+00
          0                 9           2             4    7     1      -0.3489986183E-02       4    7    1        -0.1822041926E+00      0.4463007548E+00
          0                10           2             4    7     1      -0.2922654258E-02       4    7    1        -0.1525850849E+00      0.3737501595E+00
                                                   Max.-Head-Change                         Max.-Flux-Residual
  Residual-Control   Outer-Iter.   Inner-Iter.     Column Row Layer    Maximum-Head-Change  Column Row Layer    Maximum-Flux-Residual          L2-NORM 
          0                11           2             4    7     1      -0.2452515944E-02       4    7    1        -0.1280402363E+00      0.3136286864E+00
          0                12           2             4    7     1      -0.2061453526E-02       4    7    1        -0.1076237610E+00      0.2636194733E+00
          0                13           2             4    7     1      -0.1735112604E-02       4    7    1        -0.9058624787E-01      0.2218868698E+00
          0                14           2             4    7     1      -0.1462105279E-02       4    7    1        -0.7633316042E-01      0.1869745875E+00
          0                15           2             4    7     1      -0.1233231293E-02       4    7    1        -0.6438417397E-01      0.1577060938E+00
          0                16           2             4    7     1      -0.1040989645E-02       4    7    1        -0.5434767825E-01      0.1331221576E+00
          0                17           2             4    7     1      -0.8792803582E-03       4    7    1        -0.4590520731E-01      0.1124427115E+00
          0                18           2             4    7     1      -0.7431054996E-03       4    7    1        -0.3879583046E-01      0.9502861817E-01
          0                19           2             4    7     1      -0.6283250769E-03       4    7    1        -0.3280340811E-01      0.8035045350E-01
          0                20           2             4    7     1      -0.5314622447E-03       4    7    1        -0.2774642209E-01      0.6796359715E-01
                                                   Max.-Head-Change                         Max.-Flux-Residual
  Residual-Control   Outer-Iter.   Inner-Iter.     Column Row Layer    Maximum-Head-Change  Column Row Layer    Maximum-Flux-Residual          L2-NORM 
          0                21           2             4    7     1      -0.4497045178E-03       4    7    1        -0.2347803898E-01      0.5750838757E-01
          0                22           2             4    7     1      -0.3805931125E-03       4    7    1        -0.1986989131E-01      0.4867039437E-01
          0                23           2             4    7     1      -0.3222001494E-03       4    7    1        -0.1682132891E-01      0.4120307979E-01
          0                24           2             4    7     1      -0.2728186602E-03       4    7    1        -0.1424323487E-01      0.3488815593E-01
          0                25           2             4    7     1      -0.2310483910E-03       4    7    1        -0.1206250514E-01      0.2954655776E-01
          0                26           2             4    7     1      -0.1956958839E-03       4    7    1        -0.1021683202E-01      0.2502566552E-01
          0                27           2             4    7     1      -0.1657662055E-03       4    7    1        -0.8654272338E-02      0.2119824669E-01
          0                28           2             4    7     1      -0.1404455056E-03       4    7    1        -0.7332336810E-02      0.1796022580E-01
          0                29           2             4    7     1      -0.1189748910E-03       4    7    1        -0.6211405405E-02      0.1521455528E-01
          0                30           1             4    7     1      -0.1008091801E-03       4    7    1        -0.5263015362E-02      0.1289151703E-01
          0                31           1             4    7     1      -0.8543661319E-04       4    7    1        -0.4460449074E-02      0.1092566747E-01

    ------------------------------------------------
       NWT REQUIRED           31 OUTER ITERATIONS 
       AND A TOTAL OF         60 INNER ITERATIONS.
    ------------------------------------------------

 NO OUTPUT CONTROL FOR STRESS PERIOD   20   TIME STEP    8
 
 SOLVING FOR HEAD 
                                                   Max.-Head-Change                         Max.-Flux-Residual
  Residual-Control   Outer-Iter.   Inner-Iter.     Column Row Layer    Maximum-Head-Change  Column Row Layer    Maximum-Flux-Residual          L2-NORM 
          0                 1           2             4    7     1      -0.1493682175E+00       4    7    1        -0.7840719594E+01      0.1677062999E+02
          0                 2           2             5    8     1      -0.4425117129E-02       5    8    1        -0.2455367625E+00      0.6180282359E+00
          0                 3           2             4    7     1      -0.1231288609E-01       4    7    1        -0.6432697564E+00      0.1544476216E+01
          0                 4           2             4    7     1      -0.8804532321E-02       5    8    1        -0.4618156158E+00      0.1128946151E+01
          0                 5           2             4    7     1      -0.7341424321E-02       4    7    1        -0.3832824161E+00      0.9385197378E+00
          0                 6           2             4    7     1      -0.6047095051E-02       5    6    1        -0.3157161909E+00      0.7733320007E+00
          0                 7           2             4    7     1      -0.5017235046E-02       4    7    1        -0.2619374561E+00      0.6416005565E+00
          0                 8           2             4    7     1      -0.4177939228E-02       4    7    1        -0.2181198365E+00      0.5342747876E+00
          0                 9           2             4    7     1      -0.3489999195E-02       4    7    1        -0.1822041915E+00      0.4463007487E+00
          0                10           2             4    7     1      -0.2922665174E-02       4    7    1        -0.1525850849E+00      0.3737501585E+00
                                                   Max.-Head-Change                         Max.-Flux-Residual
  Residual-Control   Outer-Iter.   Inner-Iter.     Column Row Layer    Maximum-Head-Change  Column Row Layer    Maximum-Flux-Residual          L2-NORM 
          0                11           2             4    7     1      -0.2452525101E-02       4    7    1        -0.1280402362E+00      0.3136286851E+00
          0                12           2             4    7     1      -0.2061461223E-02       4    7    1        -0.1076237609E+00      0.2636194722E+00
          0                13           2             4    7     1      -0.1735119084E-02       4    7    1        -0.9058624779E-01      0.2218868689E+00
          0                14           2             4    7     1      -0.1462110739E-02       4    7    1        -0.7633316034E-01      0.1869745868E+00
          0                15           2             4    7     1      -0.1233235899E-02       4    7    1        -0.6438417392E-01      0.1577060932E+00
          0                16           2             4    7     1      -0.1040993532E-02       4    7    1        -0.5434767818E-01      0.1331221570E+00
          0                17           2             4    7     1      -0.8792836412E-03       4    7    1        -0.4590520727E-01      0.1124427111E+00
          0                18           2             4    7     1      -0.7431082751E-03       4    7    1        -0.3879583044E-01      0.9502861780E-01
          0                19           2             4    7     1      -0.6283274230E-03       4    7    1        -0.3280340806E-01      0.8035045318E-01
          0                20           2             4    7     1      -0.5314642293E-03       4    7    1        -0.2774642206E-01      0.6796359688E-01
                                                   Max.-Head-Change                         Max.-Flux-Residual
  Residual-Control   Outer-Iter.   Inner-Iter.     Column Row Layer    Maximum-Head-Change  Column Row Layer    Maximum-Flux-Residual          L2-NORM 
          0                21           2             4    7     1      -0.4497061968E-03       4    7    1        -0.2347803895E-01      0.5750838733E-01
          0                22           2             4    7     1      -0.3805945336E-03       4    7    1        -0.1986989129E-01      0.4867039418E-01
          0                23           2             4    7     1      -0.3222013527E-03       4    7    1        -0.1682132889E-01      0.4120307962E-01
          0                24           2             4    7     1      -0.2728196790E-03       4    7    1        -0.1424323485E-01      0.3488815578E-01
          0                25           2             4    7     1      -0.2310492537E-03       4    7    1        -0.1206250511E-01      0.2954655765E-01
          0                26           2             4    7     1      -0.1956966149E-03       4    7    1        -0.1021683201E-01      0.2502566542E-01
          0                27           2             4    7     1      -0.1657668245E-03       4    7    1        -0.8654272304E-02      0.2119824659E-01
          0                28           2             4    7     1      -0.1404460294E-03       4    7    1        -0.7332336778E-02      0.1796022571E-01
          0                29           2             4    7     1      -0.1189753356E-03       4    7    1        -0.6211405417E-02      0.1521455525E-01
          0                30           1             4    7     1      -0.1008095567E-03       4    7    1        -0.5263015357E-02      0.1289151698E-01
          0                31           1             4    7     1      -0.8543693208E-04       4    7    1        -0.4460449065E-02      0.1092566744E-01

    ------------------------------------------------
       NWT REQUIRED           31 OUTER ITERATIONS 
       AND A TOTAL OF         60 INNER ITERATIONS.
    ------------------------------------------------

 NO OUTPUT CONTROL FOR STRESS PERIOD   20   TIME STEP    9
 
 SOLVING FOR HEAD 
                                                   Max.-Head-Change                         Max.-Flux-Residual
  Residual-Control   Outer-Iter.   Inner-Iter.     Column Row Layer    Maximum-Head-Change  Column Row Layer    Maximum-Flux-Residual          L2-NORM 
          0                 1           2             4    7     1      -0.1473791540E+00       4    7    1        -0.7739120007E+01      0.1645805473E+02
          0                 2           2             5    8     1      -0.4827397064E-02       5    8    1        -0.2675408644E+00      0.6664165026E+00
          0                 3           2             4    7     1      -0.1229303631E-01       4    7    1        -0.6422548530E+00      0.1540333546E+01
          0                 4           2             4    7     1      -0.8806555847E-02       5    8    1        -0.4620337092E+00      0.1129364237E+01
          0                 5           2             4    7     1      -0.7341253539E-02       4    7    1        -0.3832722887E+00      0.9384780193E+00
          0                 6           2             4    7     1      -0.6047138169E-02       5    6    1        -0.3157183196E+00      0.7733361668E+00
          0                 7           2             4    7     1      -0.5017252323E-02       4    7    1        -0.2619373546E+00      0.6416001373E+00
          0                 8           2             4    7     1      -0.4177955469E-02       4    7    1        -0.2181198464E+00      0.5342748273E+00
          0                 9           2             4    7     1      -0.3490012577E-02       4    7    1        -0.1822041903E+00      0.4463007429E+00
          0                10           2             4    7     1      -0.2922676399E-02       4    7    1        -0.1525850849E+00      0.3737501575E+00
                                                   Max.-Head-Change                         Max.-Flux-Residual
  Residual-Control   Outer-Iter.   Inner-Iter.     Column Row Layer    Maximum-Head-Change  Column Row Layer    Maximum-Flux-Residual          L2-NORM 
          0                11           2             4    7     1      -0.2452534518E-02       4    7    1        -0.1280402361E+00      0.3136286839E+00
          0                12           2             4    7     1      -0.2061469140E-02       4    7    1        -0.1076237608E+00      0.2636194713E+00
          0                13           2             4    7     1      -0.1735125746E-02       4    7    1        -0.9058624769E-01      0.2218868681E+00
          0                14           2             4    7     1      -0.1462116353E-02       4    7    1        -0.7633316027E-01      0.1869745861E+00
          0                15           2             4    7     1      -0.1233240634E-02       4    7    1        -0.6438417385E-01      0.1577060926E+00
          0                16           2             4    7     1      -0.1040997530E-02       4    7    1        -0.5434767816E-01      0.1331221566E+00
          0                17           2             4    7     1      -0.8792870178E-03       4    7    1        -0.4590520723E-01      0.1124427107E+00
          0                18           2             4    7     1      -0.7431111281E-03       4    7    1        -0.3879583039E-01      0.9502861746E-01
          0                19           2             4    7     1      -0.6283298358E-03       4    7    1        -0.3280340805E-01      0.8035045291E-01
          0                20           2             4    7     1      -0.5314662702E-03       4    7    1        -0.2774642205E-01      0.6796359665E-01
                                                   Max.-Head-Change                         Max.-Flux-Residual
  Residual-Control   Outer-Iter.   Inner-Iter.     Column Row Layer    Maximum-Head-Change  Column Row Layer    Maximum-Flux-Residual          L2-NORM 
          0                21           2             4    7     1      -0.4497079238E-03       4    7    1        -0.2347803894E-01      0.5750838714E-01
          0                22           2             4    7     1      -0.3805959954E-03       4    7    1        -0.1986989128E-01      0.4867039401E-01
          0                23           2             4    7     1      -0.3222025895E-03       4    7    1        -0.1682132887E-01      0.4120307946E-01
          0                24           2             4    7     1      -0.2728207269E-03       4    7    1        -0.1424323486E-01      0.3488815567E-01
          0                25           2             4    7     1      -0.2310501409E-03       4    7    1        -0.1206250510E-01      0.2954655754E-01
          0                26           2             4    7     1      -0.1956973662E-03       4    7    1        -0.1021683200E-01      0.2502566533E-01
          0                27           2             4    7     1      -0.1657674612E-03       4    7    1        -0.8654272317E-02      0.2119824653E-01
          0                28           2             4    7     1      -0.1404465690E-03       4    7    1        -0.7332336783E-02      0.1796022565E-01
          0                29           2             4    7     1      -0.1189757924E-03       4    7    1        -0.6211405400E-02      0.1521455520E-01
          0                30           1             4    7     1      -0.1008099437E-03       4    7    1        -0.5263015349E-02      0.1289151694E-01
          0                31           1             4    7     1      -0.8543726023E-04       4    7    1        -0.4460449064E-02      0.1092566741E-01

    ------------------------------------------------
       NWT REQUIRED           31 OUTER ITERATIONS 
       AND A TOTAL OF         60 INNER ITERATIONS.
    ------------------------------------------------

 NO OUTPUT CONTROL FOR STRESS PERIOD   20   TIME STEP   10
 
 SOLVING FOR HEAD 
                                                   Max.-Head-Change                         Max.-Flux-Residual
  Residual-Control   Outer-Iter.   Inner-Iter.     Column Row Layer    Maximum-Head-Change  Column Row Layer    Maximum-Flux-Residual          L2-NORM 
          0                 1           2             4    7     1      -0.1453613799E+00       4    7    1        -0.7635773974E+01      0.1616197168E+02
          0                 2           2             5    8     1      -0.5209909577E-02       5    8    1        -0.2884449437E+00      0.7130211091E+00
          0                 3           2             4    7     1      -0.1227290065E-01       4    7    1        -0.6412224707E+00      0.1536320161E+01
          0                 4           2             4    7     1      -0.8808608921E-02       5    8    1        -0.4622409347E+00      0.1129769443E+01
          0                 5           2             4    7     1      -0.7341080590E-02       4    7    1        -0.3832619861E+00      0.9384375845E+00
          0                 6           2             4    7     1      -0.6047182153E-02       5    6    1        -0.3157203489E+00      0.7733402049E+00
          0                 7           2             4    7     1      -0.5017270050E-02       4    7    1        -0.2619372514E+00      0.6415997312E+00
          0                 8           2             4    7     1      -0.4177972115E-02       4    7    1        -0.2181198566E+00      0.5342748659E+00
          0                 9           2             4    7     1      -0.3490026292E-02       4    7    1        -0.1822041891E+00      0.4463007374E+00
          0                10           2             4    7     1      -0.2922687903E-02       4    7    1        -0.1525850848E+00      0.3737501567E+00
                                                   Max.-Head-Change                         Max.-Flux-Residual
  Residual-Control   Outer-Iter.   Inner-Iter.     Column Row Layer    Maximum-Head-Change  Column Row Layer    Maximum-Flux-Residual          L2-NORM 
          0                11           2             4    7     1      -0.2452544170E-02       4    7    1        -0.1280402359E+00      0.3136286828E+00
          0                12           2             4    7     1      -0.2061477253E-02       4    7    1        -0.1076237607E+00      0.2636194704E+00
          0                13           2             4    7     1      -0.1735132575E-02       4    7    1        -0.9058624761E-01      0.2218868674E+00
          0                14           2             4    7     1      -0.1462122107E-02       4    7    1        -0.7633316020E-01      0.1869745855E+00
          0                15           2             4    7     1      -0.1233245488E-02       4    7    1        -0.6438417382E-01      0.1577060921E+00
          0                16           2             4    7     1      -0.1041001626E-02       4    7    1        -0.5434767809E-01      0.1331221561E+00
          0                17           2             4    7     1      -0.8792904782E-03       4    7    1        -0.4590520719E-01      0.1124427103E+00
          0                18           2             4    7     1      -0.7431140528E-03       4    7    1        -0.3879583037E-01      0.9502861714E-01
          0                19           2             4    7     1      -0.6283323089E-03       4    7    1        -0.3280340803E-01      0.8035045265E-01
          0                20           2             4    7     1      -0.5314683620E-03       4    7    1        -0.2774642202E-01      0.6796359641E-01
                                                   Max.-Head-Change                         Max.-Flux-Residual
  Residual-Control   Outer-Iter.   Inner-Iter.     Column Row Layer    Maximum-Head-Change  Column Row Layer    Maximum-Flux-Residual          L2-NORM 
          0                21           2             4    7     1      -0.4497096935E-03       4    7    1        -0.2347803890E-01      0.5750838695E-01
          0                22           2             4    7     1      -0.3805974931E-03       4    7    1        -0.1986989126E-01      0.4867039386E-01
          0                23           2             4    7     1      -0.3222038579E-03       4    7    1        -0.1682132886E-01      0.4120307935E-01
          0                24           2             4    7     1      -0.2728218002E-03       4    7    1        -0.1424323483E-01      0.3488815555E-01
          0                25           2             4    7     1      -0.2310510501E-03       4    7    1        -0.1206250510E-01      0.2954655745E-01
          0                26           2             4    7     1      -0.1956981365E-03       4    7    1        -0.1021683200E-01      0.2502566527E-01
          0                27           2             4    7     1      -0.1657681135E-03       4    7    1        -0.8654272311E-02      0.2119824648E-01
          0                28           2             4    7     1      -0.1404471219E-03       4    7    1        -0.7332336785E-02      0.1796022561E-01
          0                29           2             4    7     1      -0.1189762607E-03       4    7    1        -0.6211405397E-02      0.1521455517E-01
          0                30           1             4    7     1      -0.1008103404E-03       4    7    1        -0.5263015335E-02      0.1289151692E-01
          0                31           1             4    7     1      -0.8543759625E-04       4    7    1        -0.4460449049E-02      0.1092566740E-01

    ------------------------------------------------
       NWT REQUIRED           31 OUTER ITERATIONS 
       AND A TOTAL OF         60 INNER ITERATIONS.
    ------------------------------------------------

 NO OUTPUT CONTROL FOR STRESS PERIOD   20   TIME STEP   11
 
 SOLVING FOR HEAD 
                                                   Max.-Head-Change                         Max.-Flux-Residual
  Residual-Control   Outer-Iter.   Inner-Iter.     Column Row Layer    Maximum-Head-Change  Column Row Layer    Maximum-Flux-Residual          L2-NORM 
          0                 1           2             4    7     1      -0.1433195460E+00       4    7    1        -0.7530939980E+01      0.1588130613E+02
          0                 2           2             5    8     1      -0.5573932208E-02       5    8    1        -0.3083208921E+00      0.7578985461E+00
          0                 3           2             4    7     1      -0.1225252549E-01       4    7    1        -0.6401751934E+00      0.1532430201E+01
          0                 4           2             4    7     1      -0.8810686805E-02       5    8    1        -0.4624380016E+00      0.1130162317E+01
          0                 5           2             4    7     1      -0.7340905866E-02       4    7    1        -0.3832515340E+00      0.9383983783E+00
          0                 6           2             4    7     1      -0.6047226896E-02       5    8    1        -0.3157223047E+00      0.7733441205E+00
          0                 7           2             4    7     1      -0.5017288185E-02       4    7    1        -0.2619371467E+00      0.6415993375E+00
          0                 8           2             4    7     1      -0.4177989120E-02       4    7    1        -0.2181198668E+00      0.5342749034E+00
          0                 9           2             4    7     1      -0.3490040307E-02       4    7    1        -0.1822041879E+00      0.4463007321E+00
          0                10           2             4    7     1      -0.2922699659E-02       4    7    1        -0.1525850848E+00      0.3737501559E+00
                                                   Max.-Head-Change                         Max.-Flux-Residual
  Residual-Control   Outer-Iter.   Inner-Iter.     Column Row Layer    Maximum-Head-Change  Column Row Layer    Maximum-Flux-Residual          L2-NORM 
          0                11           2             4    7     1      -0.2452554033E-02       4    7    1        -0.1280402358E+00      0.3136286818E+00
          0                12           2             4    7     1      -0.2061485543E-02       4    7    1        -0.1076237606E+00      0.2636194696E+00
          0                13           2             4    7     1      -0.1735139553E-02       4    7    1        -0.9058624754E-01      0.2218868667E+00
          0                14           2             4    7     1      -0.1462127988E-02       4    7    1        -0.7633316014E-01      0.1869745849E+00
          0                15           2             4    7     1      -0.1233250447E-02       4    7    1        -0.6438417374E-01      0.1577060916E+00
          0                16           2             4    7     1      -0.1041005813E-02       4    7    1        -0.5434767806E-01      0.1331221557E+00
          0                17           2             4    7     1      -0.8792940144E-03       4    7    1        -0.4590520715E-01      0.1124427100E+00
          0                18           2             4    7     1      -0.7431170410E-03       4    7    1        -0.3879583033E-01      0.9502861684E-01
          0                19           2             4    7     1      -0.6283348359E-03       4    7    1        -0.3280340800E-01      0.8035045239E-01
          0                20           2             4    7     1      -0.5314704990E-03       4    7    1        -0.2774642198E-01      0.6796359621E-01
                                                   Max.-Head-Change                         Max.-Flux-Residual
  Residual-Control   Outer-Iter.   Inner-Iter.     Column Row Layer    Maximum-Head-Change  Column Row Layer    Maximum-Flux-Residual          L2-NORM 
          0                21           2             4    7     1      -0.4497115023E-03       4    7    1        -0.2347803889E-01      0.5750838676E-01
          0                22           2             4    7     1      -0.3805990237E-03       4    7    1        -0.1986989124E-01      0.4867039369E-01
          0                23           2             4    7     1      -0.3222051535E-03       4    7    1        -0.1682132884E-01      0.4120307920E-01
          0                24           2             4    7     1      -0.2728228976E-03       4    7    1        -0.1424323481E-01      0.3488815544E-01
          0                25           2             4    7     1      -0.2310519789E-03       4    7    1        -0.1206250507E-01      0.2954655734E-01
          0                26           2             4    7     1      -0.1956989236E-03       4    7    1        -0.1021683200E-01      0.2502566518E-01
          0                27           2             4    7     1      -0.1657687803E-03       4    7    1        -0.8654272301E-02      0.2119824639E-01
          0                28           2             4    7     1      -0.1404476865E-03       4    7    1        -0.7332336768E-02      0.1796022553E-01
          0                29           2             4    7     1      -0.1189767391E-03       4    7    1        -0.6211405390E-02      0.1521455509E-01
          0                30           1             4    7     1      -0.1008107457E-03       4    7    1        -0.5263015336E-02      0.1289151684E-01
          0                31           1             4    7     1      -0.8543794028E-04       4    7    1        -0.4460449061E-02      0.1092566733E-01

    ------------------------------------------------
       NWT REQUIRED           31 OUTER ITERATIONS 
       AND A TOTAL OF         60 INNER ITERATIONS.
    ------------------------------------------------

 NO OUTPUT CONTROL FOR STRESS PERIOD   20   TIME STEP   12
 
 SOLVING FOR HEAD 
                                                   Max.-Head-Change                         Max.-Flux-Residual
  Residual-Control   Outer-Iter.   Inner-Iter.     Column Row Layer    Maximum-Head-Change  Column Row Layer    Maximum-Flux-Residual          L2-NORM 
          0                 1           2             4    7     1      -0.1412579683E+00       4    7    1        -0.7424859135E+01      0.1561502961E+02
          0                 2           2             5    8     1      -0.5920687141E-02       5    8    1        -0.3272372995E+00      0.8011148501E+00
          0                 3           2             4    7     1      -0.1223195387E-01       4    7    1        -0.6391154312E+00      0.1528657852E+01
          0                 4           2             4    7     1      -0.8812785103E-02       5    8    1        -0.4626255868E+00      0.1130543411E+01
          0                 5           2             4    7     1      -0.7340729730E-02       4    7    1        -0.3832409566E+00      0.9383603457E+00
          0                 6           2             4    7     1      -0.6047272301E-02       5    8    1        -0.3157241740E+00      0.7733479192E+00
          0                 7           2             4    7     1      -0.5017306685E-02       4    7    1        -0.2619370408E+00      0.6415989557E+00
          0                 8           2             4    7     1      -0.4178006449E-02       4    7    1        -0.2181198772E+00      0.5342749399E+00
          0                 9           2             4    7     1      -0.3490054589E-02       4    7    1        -0.1822041867E+00      0.4463007271E+00
          0                10           2             4    7     1      -0.2922711639E-02       4    7    1        -0.1525850848E+00      0.3737501553E+00
                                                   Max.-Head-Change                         Max.-Flux-Residual
  Residual-Control   Outer-Iter.   Inner-Iter.     Column Row Layer    Maximum-Head-Change  Column Row Layer    Maximum-Flux-Residual          L2-NORM 
          0                11           2             4    7     1      -0.2452564084E-02       4    7    1        -0.1280402357E+00      0.3136286809E+00
          0                12           2             4    7     1      -0.2061493991E-02       4    7    1        -0.1076237605E+00      0.2636194689E+00
          0                13           2             4    7     1      -0.1735146664E-02       4    7    1        -0.9058624750E-01      0.2218868661E+00
          0                14           2             4    7     1      -0.1462133979E-02       4    7    1        -0.7633316009E-01      0.1869745844E+00
          0                15           2             4    7     1      -0.1233255501E-02       4    7    1        -0.6438417371E-01      0.1577060911E+00
          0                16           2             4    7     1      -0.1041010079E-02       4    7    1        -0.5434767802E-01      0.1331221553E+00
          0                17           2             4    7     1      -0.8792976180E-03       4    7    1        -0.4590520711E-01      0.1124427097E+00
          0                18           2             4    7     1      -0.7431200867E-03       4    7    1        -0.3879583030E-01      0.9502861658E-01
          0                19           2             4    7     1      -0.6283374104E-03       4    7    1        -0.3280340796E-01      0.8035045218E-01
          0                20           2             4    7     1      -0.5314726777E-03       4    7    1        -0.2774642199E-01      0.6796359601E-01
                                                   Max.-Head-Change                         Max.-Flux-Residual
  Residual-Control   Outer-Iter.   Inner-Iter.     Column Row Layer    Maximum-Head-Change  Column Row Layer    Maximum-Flux-Residual          L2-NORM 
          0                21           2             4    7     1      -0.4497133450E-03       4    7    1        -0.2347803886E-01      0.5750838659E-01
          0                22           2             4    7     1      -0.3806005834E-03       4    7    1        -0.1986989122E-01      0.4867039355E-01
          0                23           2             4    7     1      -0.3222064740E-03       4    7    1        -0.1682132883E-01      0.4120307910E-01
          0                24           2             4    7     1      -0.2728240158E-03       4    7    1        -0.1424323481E-01      0.3488815544E-01
          0                25           2             4    7     1      -0.2310529262E-03       4    7    1        -0.1206250507E-01      0.2954655730E-01
          0                26           2             4    7     1      -0.1956997253E-03       4    7    1        -0.1021683197E-01      0.2502566515E-01
          0                27           2             4    7     1      -0.1657694594E-03       4    7    1        -0.8654272300E-02      0.2119824634E-01
          0                28           2             4    7     1      -0.1404482620E-03       4    7    1        -0.7332336777E-02      0.1796022548E-01
          0                29           2             4    7     1      -0.1189772268E-03       4    7    1        -0.6211405405E-02      0.1521455506E-01
          0                30           1             4    7     1      -0.1008111592E-03       4    7    1        -0.5263015348E-02      0.1289151683E-01
          0                31           1             4    7     1      -0.8543829031E-04       4    7    1        -0.4460449052E-02      0.1092566731E-01

    ------------------------------------------------
       NWT REQUIRED           31 OUTER ITERATIONS 
       AND A TOTAL OF         60 INNER ITERATIONS.
    ------------------------------------------------

 NO OUTPUT CONTROL FOR STRESS PERIOD   20   TIME STEP   13
 
 SOLVING FOR HEAD 
                                                   Max.-Head-Change                         Max.-Flux-Residual
  Residual-Control   Outer-Iter.   Inner-Iter.     Column Row Layer    Maximum-Head-Change  Column Row Layer    Maximum-Flux-Residual          L2-NORM 
          0                 1           2             4    7     1      -0.1391805264E+00       4    7    1        -0.7317747894E+01      0.1536223513E+02
          0                 2           2             5    8     1      -0.6251274436E-02       5    8    1        -0.3452559708E+00      0.8427409512E+00
          0                 3           2             4    7     1      -0.1221122449E-01       4    7    1        -0.6380453479E+00      0.1524997963E+01
          0                 4           2             4    7     1      -0.8814899863E-02       5    8    1        -0.4628043004E+00      0.1130913215E+01
          0                 5           2             4    7     1      -0.7340552511E-02       4    7    1        -0.3832302754E+00      0.9383234378E+00
          0                 6           2             4    7     1      -0.6047318278E-02       5    8    1        -0.3157259552E+00      0.7733516057E+00
          0                 7           2             4    7     1      -0.5017325512E-02       4    7    1        -0.2619369338E+00      0.6415985853E+00
          0                 8           2             4    7     1      -0.4178024064E-02       4    7    1        -0.2181198877E+00      0.5342749754E+00
          0                 9           2             4    7     1      -0.3490069110E-02       4    7    1        -0.1822041855E+00      0.4463007222E+00
          0                10           2             4    7     1      -0.2922723819E-02       4    7    1        -0.1525850848E+00      0.3737501547E+00
                                                   Max.-Head-Change                         Max.-Flux-Residual
  Residual-Control   Outer-Iter.   Inner-Iter.     Column Row Layer    Maximum-Head-Change  Column Row Layer    Maximum-Flux-Residual          L2-NORM 
          0                11           2             4    7     1      -0.2452574302E-02       4    7    1        -0.1280402356E+00      0.3136286801E+00
          0                12           2             4    7     1      -0.2061502581E-02       4    7    1        -0.1076237604E+00      0.2636194682E+00
          0                13           2             4    7     1      -0.1735153893E-02       4    7    1        -0.9058624741E-01      0.2218868655E+00
          0                14           2             4    7     1      -0.1462140072E-02       4    7    1        -0.7633316004E-01      0.1869745839E+00
          0                15           2             4    7     1      -0.1233260640E-02       4    7    1        -0.6438417365E-01      0.1577060908E+00
          0                16           2             4    7     1      -0.1041014417E-02       4    7    1        -0.5434767797E-01      0.1331221550E+00
          0                17           2             4    7     1      -0.8793012816E-03       4    7    1        -0.4590520707E-01      0.1124427094E+00
          0                18           2             4    7     1      -0.7431231828E-03       4    7    1        -0.3879583026E-01      0.9502861634E-01
          0                19           2             4    7     1      -0.6283400287E-03       4    7    1        -0.3280340794E-01      0.8035045196E-01
          0                20           2             4    7     1      -0.5314748917E-03       4    7    1        -0.2774642195E-01      0.6796359585E-01
                                                   Max.-Head-Change                         Max.-Flux-Residual
  Residual-Control   Outer-Iter.   Inner-Iter.     Column Row Layer    Maximum-Head-Change  Column Row Layer    Maximum-Flux-Residual          L2-NORM 
          0                21           2             4    7     1      -0.4497152188E-03       4    7    1        -0.2347803885E-01      0.5750838646E-01
          0                22           2             4    7     1      -0.3806021694E-03       4    7    1        -0.1986989122E-01      0.4867039344E-01
          0                23           2             4    7     1      -0.3222078167E-03       4    7    1        -0.1682132882E-01      0.4120307899E-01
          0                24           2             4    7     1      -0.2728251523E-03       4    7    1        -0.1424323479E-01      0.3488815525E-01
          0                25           2             4    7     1      -0.2310538889E-03       4    7    1        -0.1206250505E-01      0.2954655718E-01
          0                26           2             4    7     1      -0.1957005406E-03       4    7    1        -0.1021683196E-01      0.2502566504E-01
          0                27           2             4    7     1      -0.1657701502E-03       4    7    1        -0.8654272291E-02      0.2119824629E-01
          0                28           2             4    7     1      -0.1404488474E-03       4    7    1        -0.7332336761E-02      0.1796022545E-01
          0                29           2             4    7     1      -0.1189777221E-03       4    7    1        -0.6211405375E-02      0.1521455502E-01
          0                30           1             4    7     1      -0.1008115791E-03       4    7    1        -0.5263015338E-02      0.1289151680E-01
          0                31           1             4    7     1      -0.8543864622E-04       4    7    1        -0.4460449053E-02      0.1092566728E-01

    ------------------------------------------------
       NWT REQUIRED           31 OUTER ITERATIONS 
       AND A TOTAL OF         60 INNER ITERATIONS.
    ------------------------------------------------

 NO OUTPUT CONTROL FOR STRESS PERIOD   20   TIME STEP   14
 
 SOLVING FOR HEAD 
                                                   Max.-Head-Change                         Max.-Flux-Residual
  Residual-Control   Outer-Iter.   Inner-Iter.     Column Row Layer    Maximum-Head-Change  Column Row Layer    Maximum-Flux-Residual          L2-NORM 
          0                 1           2             4    7     1      -0.1370909413E+00       4    7    1        -0.7209814676E+01      0.1512206818E+02
          0                 2           2             5    8     1      -0.6566697753E-02       5    8    1        -0.3624331641E+00      0.8828492315E+00
          0                 3           2             4    7     1      -0.1219037445E-01       4    7    1        -0.6369670270E+00      0.1521445524E+01
          0                 4           2             4    7     1      -0.8817027293E-02       5    8    1        -0.4629746977E+00      0.1131272212E+01
          0                 5           2             4    7     1      -0.7340374521E-02       4    7    1        -0.3832195115E+00      0.9382876065E+00
          0                 6           2             4    7     1      -0.6047364741E-02       5    8    1        -0.3157276537E+00      0.7733551849E+00
          0                 7           2             4    7     1      -0.5017344629E-02       4    7    1        -0.2619368260E+00      0.6415982258E+00
          0                 8           2             4    7     1      -0.4178041934E-02       4    7    1        -0.2181198983E+00      0.5342750099E+00
          0                 9           2             4    7     1      -0.3490083841E-02       4    7    1        -0.1822041843E+00      0.4463007176E+00
          0                10           2             4    7     1      -0.2922736175E-02       4    7    1        -0.1525850848E+00      0.3737501542E+00
                                                   Max.-Head-Change                         Max.-Flux-Residual
  Residual-Control   Outer-Iter.   Inner-Iter.     Column Row Layer    Maximum-Head-Change  Column Row Layer    Maximum-Flux-Residual          L2-NORM 
          0                11           2             4    7     1      -0.2452584669E-02       4    7    1        -0.1280402355E+00      0.3136286793E+00
          0                12           2             4    7     1      -0.2061511295E-02       4    7    1        -0.1076237604E+00      0.2636194676E+00
          0                13           2             4    7     1      -0.1735161228E-02       4    7    1        -0.9058624734E-01      0.2218868650E+00
          0                14           2             4    7     1      -0.1462146252E-02       4    7    1        -0.7633315998E-01      0.1869745835E+00
          0                15           2             4    7     1      -0.1233265852E-02       4    7    1        -0.6438417361E-01      0.1577060904E+00
          0                16           2             4    7     1      -0.1041018817E-02       4    7    1        -0.5434767795E-01      0.1331221547E+00
          0                17           2             4    7     1      -0.8793049983E-03       4    7    1        -0.4590520706E-01      0.1124427091E+00
          0                18           2             4    7     1      -0.7431263242E-03       4    7    1        -0.3879583025E-01      0.9502861612E-01
          0                19           2             4    7     1      -0.6283426848E-03       4    7    1        -0.3280340792E-01      0.8035045178E-01
          0                20           2             4    7     1      -0.5314771379E-03       4    7    1        -0.2774642193E-01      0.6796359568E-01
                                                   Max.-Head-Change                         Max.-Flux-Residual
  Residual-Control   Outer-Iter.   Inner-Iter.     Column Row Layer    Maximum-Head-Change  Column Row Layer    Maximum-Flux-Residual          L2-NORM 
          0                21           2             4    7     1      -0.4497171199E-03       4    7    1        -0.2347803885E-01      0.5750838632E-01
          0                22           2             4    7     1      -0.3806037782E-03       4    7    1        -0.1986989120E-01      0.4867039334E-01
          0                23           2             4    7     1      -0.3222091783E-03       4    7    1        -0.1682132880E-01      0.4120307890E-01
          0                24           2             4    7     1      -0.2728263056E-03       4    7    1        -0.1424323479E-01      0.3488815519E-01
          0                25           2             4    7     1      -0.2310548657E-03       4    7    1        -0.1206250506E-01      0.2954655713E-01
          0                26           2             4    7     1      -0.1957013679E-03       4    7    1        -0.1021683196E-01      0.2502566498E-01
          0                27           2             4    7     1      -0.1657708509E-03       4    7    1        -0.8654272287E-02      0.2119824624E-01
          0                28           2             4    7     1      -0.1404494409E-03       4    7    1        -0.7332336761E-02      0.1796022540E-01
          0                29           2             4    7     1      -0.1189782252E-03       4    7    1        -0.6211405389E-02      0.1521455498E-01
          0                30           1             4    7     1      -0.1008120054E-03       4    7    1        -0.5263015345E-02      0.1289151675E-01
          0                31           1             4    7     1      -0.8543900738E-04       4    7    1        -0.4460449046E-02      0.1092566725E-01

    ------------------------------------------------
       NWT REQUIRED           31 OUTER ITERATIONS 
       AND A TOTAL OF         60 INNER ITERATIONS.
    ------------------------------------------------

 NO OUTPUT CONTROL FOR STRESS PERIOD   20   TIME STEP   15
 
 SOLVING FOR HEAD 
                                                   Max.-Head-Change                         Max.-Flux-Residual
  Residual-Control   Outer-Iter.   Inner-Iter.     Column Row Layer    Maximum-Head-Change  Column Row Layer    Maximum-Flux-Residual          L2-NORM 
          0                 1           2             4    7     1      -0.1349926601E+00       4    7    1        -0.7101252389E+01      0.1489373893E+02
          0                 2           2             5    8     1      -0.6867940172E-02       5    8    1        -0.3788240478E+00      0.9215100213E+00
          0                 3           2             4    7     1      -0.1216943814E-01       4    7    1        -0.6358823967E+00      0.1517995855E+01
          0                 4           2             4    7     1      -0.8819163880E-02       5    8    1        -0.4631373232E+00      0.1131620855E+01
          0                 5           2             4    7     1      -0.7340196050E-02       4    7    1        -0.3832086839E+00      0.9382528065E+00
          0                 6           2             4    7     1      -0.6047411611E-02       5    8    1        -0.3157292748E+00      0.7733586613E+00
          0                 7           2             4    7     1      -0.5017364003E-02       4    7    1        -0.2619367176E+00      0.6415978768E+00
          0                 8           2             4    7     1      -0.4178060024E-02       4    7    1        -0.2181199090E+00      0.5342750436E+00
          0                 9           2             4    7     1      -0.3490098756E-02       4    7    1        -0.1822041831E+00      0.4463007133E+00
          0                10           2             4    7     1      -0.2922748686E-02       4    7    1        -0.1525850848E+00      0.3737501538E+00
                                                   Max.-Head-Change                         Max.-Flux-Residual
  Residual-Control   Outer-Iter.   Inner-Iter.     Column Row Layer    Maximum-Head-Change  Column Row Layer    Maximum-Flux-Residual          L2-NORM 
          0                11           2             4    7     1      -0.2452595165E-02       4    7    1        -0.1280402354E+00      0.3136286786E+00
          0                12           2             4    7     1      -0.2061520118E-02       4    7    1        -0.1076237603E+00      0.2636194671E+00
          0                13           2             4    7     1      -0.1735168654E-02       4    7    1        -0.9058624728E-01      0.2218868646E+00
          0                14           2             4    7     1      -0.1462152510E-02       4    7    1        -0.7633315994E-01      0.1869745831E+00
          0                15           2             4    7     1      -0.1233271130E-02       4    7    1        -0.6438417354E-01      0.1577060901E+00
          0                16           2             4    7     1      -0.1041023272E-02       4    7    1        -0.5434767791E-01      0.1331221545E+00
          0                17           2             4    7     1      -0.8793087615E-03       4    7    1        -0.4590520701E-01      0.1124427089E+00
          0                18           2             4    7     1      -0.7431295042E-03       4    7    1        -0.3879583022E-01      0.9502861593E-01
          0                19           2             4    7     1      -0.6283453740E-03       4    7    1        -0.3280340791E-01      0.8035045163E-01
          0                20           2             4    7     1      -0.5314794128E-03       4    7    1        -0.2774642192E-01      0.6796359557E-01
                                                   Max.-Head-Change                         Max.-Flux-Residual
  Residual-Control   Outer-Iter.   Inner-Iter.     Column Row Layer    Maximum-Head-Change  Column Row Layer    Maximum-Flux-Residual          L2-NORM 
          0                21           2             4    7     1      -0.4497190445E-03       4    7    1        -0.2347803882E-01      0.5750838621E-01
          0                22           2             4    7     1      -0.3806054070E-03       4    7    1        -0.1986989119E-01      0.4867039325E-01
          0                23           2             4    7     1      -0.3222105577E-03       4    7    1        -0.1682132880E-01      0.4120307880E-01
          0                24           2             4    7     1      -0.2728274731E-03       4    7    1        -0.1424323477E-01      0.3488815510E-01
          0                25           2             4    7     1      -0.2310558544E-03       4    7    1        -0.1206250504E-01      0.2954655707E-01
          0                26           2             4    7     1      -0.1957022055E-03       4    7    1        -0.1021683195E-01      0.2502566494E-01
          0                27           2             4    7     1      -0.1657715604E-03       4    7    1        -0.8654272276E-02      0.2119824620E-01
          0                28           2             4    7     1      -0.1404500420E-03       4    7    1        -0.7332336748E-02      0.1796022536E-01
          0                29           2             4    7     1      -0.1189787346E-03       4    7    1        -0.6211405383E-02      0.1521455496E-01
          0                30           1             4    7     1      -0.1008124367E-03       4    7    1        -0.5263015329E-02      0.1289151673E-01
          0                31           1             4    7     1      -0.8543937304E-04       4    7    1        -0.4460449041E-02      0.1092566723E-01

    ------------------------------------------------
       NWT REQUIRED           31 OUTER ITERATIONS 
       AND A TOTAL OF         60 INNER ITERATIONS.
    ------------------------------------------------

 NO OUTPUT CONTROL FOR STRESS PERIOD   20   TIME STEP   16
 
 SOLVING FOR HEAD 
                                                   Max.-Head-Change                         Max.-Flux-Residual
  Residual-Control   Outer-Iter.   Inner-Iter.     Column Row Layer    Maximum-Head-Change  Column Row Layer    Maximum-Flux-Residual          L2-NORM 
          0                 1           2             4    7     1      -0.1328888684E+00       4    7    1        -0.6992239727E+01      0.1467653555E+02
          0                 2           2             5    8     1      -0.7155869857E-02       5    8    1        -0.3944772494E+00      0.9587938268E+00
          0                 3           2             4    7     1      -0.1214844732E-01       4    7    1        -0.6347932437E+00      0.1514644591E+01
          0                 4           2             4    7     1      -0.8821306378E-02       5    8    1        -0.4632926572E+00      0.1131959569E+01
          0                 5           2             4    7     1      -0.7340017366E-02       4    7    1        -0.3831978107E+00      0.9382189957E+00
          0                 6           2             4    7     1      -0.6047458813E-02       5    8    1        -0.3157308235E+00      0.7733620390E+00
          0                 7           2             4    7     1      -0.5017383602E-02       4    7    1        -0.2619366088E+00      0.6415975378E+00
          0                 8           2             4    7     1      -0.4178078308E-02       4    7    1        -0.2181199198E+00      0.5342750764E+00
          0                 9           2             4    7     1      -0.3490113832E-02       4    7    1        -0.1822041819E+00      0.4463007091E+00
          0                10           2             4    7     1      -0.2922761330E-02       4    7    1        -0.1525850848E+00      0.3737501534E+00
                                                   Max.-Head-Change                         Max.-Flux-Residual
  Residual-Control   Outer-Iter.   Inner-Iter.     Column Row Layer    Maximum-Head-Change  Column Row Layer    Maximum-Flux-Residual          L2-NORM 
          0                11           2             4    7     1      -0.2452605774E-02       4    7    1        -0.1280402353E+00      0.3136286781E+00
          0                12           2             4    7     1      -0.2061529035E-02       4    7    1        -0.1076237602E+00      0.2636194666E+00
          0                13           2             4    7     1      -0.1735176159E-02       4    7    1        -0.9058624723E-01      0.2218868642E+00
          0                14           2             4    7     1      -0.1462158834E-02       4    7    1        -0.7633315989E-01      0.1869745828E+00
          0                15           2             4    7     1      -0.1233276465E-02       4    7    1        -0.6438417353E-01      0.1577060898E+00
          0                16           2             4    7     1      -0.1041027775E-02       4    7    1        -0.5434767787E-01      0.1331221542E+00
          0                17           2             4    7     1      -0.8793125655E-03       4    7    1        -0.4590520701E-01      0.1124427087E+00
          0                18           2             4    7     1      -0.7431327185E-03       4    7    1        -0.3879583018E-01      0.9502861577E-01
          0                19           2             4    7     1      -0.6283480920E-03       4    7    1        -0.3280340789E-01      0.8035045149E-01
          0                20           2             4    7     1      -0.5314817116E-03       4    7    1        -0.2774642189E-01      0.6796359544E-01
                                                   Max.-Head-Change                         Max.-Flux-Residual
  Residual-Control   Outer-Iter.   Inner-Iter.     Column Row Layer    Maximum-Head-Change  Column Row Layer    Maximum-Flux-Residual          L2-NORM 
          0                21           2             4    7     1      -0.4497209899E-03       4    7    1        -0.2347803882E-01      0.5750838611E-01
          0                22           2             4    7     1      -0.3806070534E-03       4    7    1        -0.1986989117E-01      0.4867039314E-01
          0                23           2             4    7     1      -0.3222119509E-03       4    7    1        -0.1682132878E-01      0.4120307876E-01
          0                24           2             4    7     1      -0.2728286535E-03       4    7    1        -0.1424323478E-01      0.3488815506E-01
          0                25           2             4    7     1      -0.2310568537E-03       4    7    1        -0.1206250504E-01      0.2954655701E-01
          0                26           2             4    7     1      -0.1957030521E-03       4    7    1        -0.1021683195E-01      0.2502566490E-01
          0                27           2             4    7     1      -0.1657722776E-03       4    7    1        -0.8654272278E-02      0.2119824616E-01
          0                28           2             4    7     1      -0.1404506496E-03       4    7    1        -0.7332336743E-02      0.1796022533E-01
          0                29           2             4    7     1      -0.1189792489E-03       4    7    1        -0.6211405367E-02      0.1521455492E-01
          0                30           1             4    7     1      -0.1008128728E-03       4    7    1        -0.5263015336E-02      0.1289151669E-01
          0                31           1             4    7     1      -0.8543974270E-04       4    7    1        -0.4460449044E-02      0.1092566721E-01

    ------------------------------------------------
       NWT REQUIRED           31 OUTER ITERATIONS 
       AND A TOTAL OF         60 INNER ITERATIONS.
    ------------------------------------------------

 NO OUTPUT CONTROL FOR STRESS PERIOD   20   TIME STEP   17
 
 SOLVING FOR HEAD 
                                                   Max.-Head-Change                         Max.-Flux-Residual
  Residual-Control   Outer-Iter.   Inner-Iter.     Column Row Layer    Maximum-Head-Change  Column Row Layer    Maximum-Flux-Residual          L2-NORM 
          0                 1           2             4    7     1      -0.1307823689E+00       4    7    1        -0.6882934553E+01      0.1446978850E+02
          0                 2           2             5    8     1      -0.7431290204E-02       5    8    1        -0.4094377857E+00      0.9947669538E+00
          0                 3           2             4    7     1      -0.1212742993E-01       4    7    1        -0.6337011461E+00      0.1511387586E+01
          0                 4           2             4    7     1      -0.8823451929E-02       5    8    1        -0.4634411436E+00      0.1132288760E+01
          0                 5           2             4    7     1      -0.7339838702E-02       4    7    1        -0.3831869075E+00      0.9381861335E+00
          0                 6           2             4    7     1      -0.6047506282E-02       5    8    1        -0.3157323041E+00      0.7733653222E+00
          0                 7           2             4    7     1      -0.5017403397E-02       4    7    1        -0.2619364996E+00      0.6415972083E+00
          0                 8           2             4    7     1      -0.4178096756E-02       4    7    1        -0.2181199305E+00      0.5342751084E+00
          0                 9           2             4    7     1      -0.3490129047E-02       4    7    1        -0.1822041807E+00      0.4463007050E+00
          0                10           2             4    7     1      -0.2922774091E-02       4    7    1        -0.1525850848E+00      0.3737501532E+00
                                                   Max.-Head-Change                         Max.-Flux-Residual
  Residual-Control   Outer-Iter.   Inner-Iter.     Column Row Layer    Maximum-Head-Change  Column Row Layer    Maximum-Flux-Residual          L2-NORM 
          0                11           2             4    7     1      -0.2452616480E-02       4    7    1        -0.1280402352E+00      0.3136286775E+00
          0                12           2             4    7     1      -0.2061538034E-02       4    7    1        -0.1076237602E+00      0.2636194662E+00
          0                13           2             4    7     1      -0.1735183734E-02       4    7    1        -0.9058624719E-01      0.2218868638E+00
          0                14           2             4    7     1      -0.1462165217E-02       4    7    1        -0.7633315984E-01      0.1869745825E+00
          0                15           2             4    7     1      -0.1233281849E-02       4    7    1        -0.6438417349E-01      0.1577060895E+00
          0                16           2             4    7     1      -0.1041032319E-02       4    7    1        -0.5434767785E-01      0.1331221540E+00
          0                17           2             4    7     1      -0.8793164040E-03       4    7    1        -0.4590520698E-01      0.1124427085E+00
          0                18           2             4    7     1      -0.7431359626E-03       4    7    1        -0.3879583016E-01      0.9502861562E-01
          0                19           2             4    7     1      -0.6283508348E-03       4    7    1        -0.3280340787E-01      0.8035045135E-01
          0                20           2             4    7     1      -0.5314840317E-03       4    7    1        -0.2774642188E-01      0.6796359534E-01
                                                   Max.-Head-Change                         Max.-Flux-Residual
  Residual-Control   Outer-Iter.   Inner-Iter.     Column Row Layer    Maximum-Head-Change  Column Row Layer    Maximum-Flux-Residual          L2-NORM 
          0                21           2             4    7     1      -0.4497229530E-03       4    7    1        -0.2347803880E-01      0.5750838603E-01
          0                22           2             4    7     1      -0.3806087145E-03       4    7    1        -0.1986989116E-01      0.4867039307E-01
          0                23           2             4    7     1      -0.3222133578E-03       4    7    1        -0.1682132878E-01      0.4120307868E-01
          0                24           2             4    7     1      -0.2728298443E-03       4    7    1        -0.1424323477E-01      0.3488815501E-01
          0                25           2             4    7     1      -0.2310578625E-03       4    7    1        -0.1206250504E-01      0.2954655697E-01
          0                26           2             4    7     1      -0.1957039066E-03       4    7    1        -0.1021683195E-01      0.2502566486E-01
          0                27           2             4    7     1      -0.1657730009E-03       4    7    1        -0.8654272267E-02      0.2119824613E-01
          0                28           2             4    7     1      -0.1404512631E-03       4    7    1        -0.7332336752E-02      0.1796022531E-01
          0                29           2             4    7     1      -0.1189797682E-03       4    7    1        -0.6211405351E-02      0.1521455489E-01
          0                30           1             4    7     1      -0.1008133126E-03       4    7    1        -0.5263015321E-02      0.1289151669E-01
          0                31           1             4    7     1      -0.8544011587E-04       4    7    1        -0.4460449052E-02      0.1092566722E-01

    ------------------------------------------------
       NWT REQUIRED           31 OUTER ITERATIONS 
       AND A TOTAL OF         60 INNER ITERATIONS.
    ------------------------------------------------

 NO OUTPUT CONTROL FOR STRESS PERIOD   20   TIME STEP   18
 
 SOLVING FOR HEAD 
                                                   Max.-Head-Change                         Max.-Flux-Residual
  Residual-Control   Outer-Iter.   Inner-Iter.     Column Row Layer    Maximum-Head-Change  Column Row Layer    Maximum-Flux-Residual          L2-NORM 
          0                 1           2             4    7     1      -0.1286760082E+00       4    7    1        -0.6773496723E+01      0.1427287823E+02
          0                 2           2             5    8     1      -0.7694988031E-02       5    8    1        -0.4237496567E+00      0.1029493668E+01
          0                 3           2             4    7     1      -0.1210641438E-01       4    7    1        -0.6326077021E+00      0.1508220885E+01
          0                 4           2             4    7     1      -0.8825597630E-02       5    8    1        -0.4635832175E+00      0.1132608816E+01
          0                 5           2             4    7     1      -0.7339660298E-02       4    7    1        -0.3831759904E+00      0.9381541811E+00
          0                 6           2             4    7     1      -0.6047553951E-02       5    8    1        -0.3157337208E+00      0.7733685145E+00
          0                 7           2             4    7     1      -0.5017423359E-02       4    7    1        -0.2619363903E+00      0.6415968881E+00
          0                 8           2             4    7     1      -0.4178115345E-02       4    7    1        -0.2181199413E+00      0.5342751395E+00
          0                 9           2             4    7     1      -0.3490144377E-02       4    7    1        -0.1822041795E+00      0.4463007012E+00
          0                10           2             4    7     1      -0.2922786949E-02       4    7    1        -0.1525850849E+00      0.3737501529E+00
                                                   Max.-Head-Change                         Max.-Flux-Residual
  Residual-Control   Outer-Iter.   Inner-Iter.     Column Row Layer    Maximum-Head-Change  Column Row Layer    Maximum-Flux-Residual          L2-NORM 
          0                11           2             4    7     1      -0.2452627267E-02       4    7    1        -0.1280402351E+00      0.3136286770E+00
          0                12           2             4    7     1      -0.2061547102E-02       4    7    1        -0.1076237601E+00      0.2636194658E+00
          0                13           2             4    7     1      -0.1735191366E-02       4    7    1        -0.9058624713E-01      0.2218868635E+00
          0                14           2             4    7     1      -0.1462171649E-02       4    7    1        -0.7633315980E-01      0.1869745822E+00
          0                15           2             4    7     1      -0.1233287273E-02       4    7    1        -0.6438417345E-01      0.1577060893E+00
          0                16           2             4    7     1      -0.1041036899E-02       4    7    1        -0.5434767781E-01      0.1331221538E+00
          0                17           2             4    7     1      -0.8793202708E-03       4    7    1        -0.4590520692E-01      0.1124427083E+00
          0                18           2             4    7     1      -0.7431392318E-03       4    7    1        -0.3879583017E-01      0.9502861550E-01
          0                19           2             4    7     1      -0.6283535986E-03       4    7    1        -0.3280340784E-01      0.8035045124E-01
          0                20           2             4    7     1      -0.5314863696E-03       4    7    1        -0.2774642186E-01      0.6796359523E-01
                                                   Max.-Head-Change                         Max.-Flux-Residual
  Residual-Control   Outer-Iter.   Inner-Iter.     Column Row Layer    Maximum-Head-Change  Column Row Layer    Maximum-Flux-Residual          L2-NORM 
          0                21           2             4    7     1      -0.4497249309E-03       4    7    1        -0.2347803877E-01      0.5750838594E-01
          0                22           2             4    7     1      -0.3806103889E-03       4    7    1        -0.1986989115E-01      0.4867039299E-01
          0                23           2             4    7     1      -0.3222147747E-03       4    7    1        -0.1682132876E-01      0.4120307862E-01
          0                24           2             4    7     1      -0.2728310446E-03       4    7    1        -0.1424323477E-01      0.3488815498E-01
          0                25           2             4    7     1      -0.2310588789E-03       4    7    1        -0.1206250503E-01      0.2954655693E-01
          0                26           2             4    7     1      -0.1957047672E-03       4    7    1        -0.1021683194E-01      0.2502566482E-01
          0                27           2             4    7     1      -0.1657737301E-03       4    7    1        -0.8654272257E-02      0.2119824609E-01
          0                28           2             4    7     1      -0.1404518808E-03       4    7    1        -0.7332336746E-02      0.1796022528E-01
          0                29           2             4    7     1      -0.1189802918E-03       4    7    1        -0.6211405360E-02      0.1521455487E-01
          0                30           1             4    7     1      -0.1008137561E-03       4    7    1        -0.5263015317E-02      0.1289151668E-01
          0                31           1             4    7     1      -0.8544049129E-04       4    7    1        -0.4460449035E-02      0.1092566716E-01

    ------------------------------------------------
       NWT REQUIRED           31 OUTER ITERATIONS 
       AND A TOTAL OF         60 INNER ITERATIONS.
    ------------------------------------------------

 NO OUTPUT CONTROL FOR STRESS PERIOD   20   TIME STEP   19
 
 SOLVING FOR HEAD 
                                                   Max.-Head-Change                         Max.-Flux-Residual
  Residual-Control   Outer-Iter.   Inner-Iter.     Column Row Layer    Maximum-Head-Change  Column Row Layer    Maximum-Flux-Residual          L2-NORM 
          0                 1           2             4    7     1      -0.1265721393E+00       4    7    1        -0.6664059255E+01      0.1408524443E+02
          0                 2           2             5    8     1      -0.7947635778E-02       5    8    1        -0.4374505366E+00      0.1063034572E+01
          0                 3           2             4    7     1      -0.1208542411E-01       4    7    1        -0.6315142415E+00      0.1505140870E+01
          0                 4           2             4    7     1      -0.8827741083E-02       5    8    1        -0.4637192503E+00      0.1132920096E+01
          0                 5           2             4    7     1      -0.7339482347E-02       4    7    1        -0.3831650727E+00      0.9381231031E+00
          0                 6           2             4    7     1      -0.6047601764E-02       5    8    1        -0.3157350775E+00      0.7733716198E+00
          0                 7           2             4    7     1      -0.5017443464E-02       4    7    1        -0.2619362811E+00      0.6415965768E+00
          0                 8           2             4    7     1      -0.4178134049E-02       4    7    1        -0.2181199521E+00      0.5342751699E+00
          0                 9           2             4    7     1      -0.3490159805E-02       4    7    1        -0.1822041783E+00      0.4463006976E+00
          0                10           2             4    7     1      -0.2922799888E-02       4    7    1        -0.1525850849E+00      0.3737501528E+00
                                                   Max.-Head-Change                         Max.-Flux-Residual
  Residual-Control   Outer-Iter.   Inner-Iter.     Column Row Layer    Maximum-Head-Change  Column Row Layer    Maximum-Flux-Residual          L2-NORM 
          0                11           2             4    7     1      -0.2452638124E-02       4    7    1        -0.1280402351E+00      0.3136286766E+00
          0                12           2             4    7     1      -0.2061556227E-02       4    7    1        -0.1076237601E+00      0.2636194655E+00
          0                13           2             4    7     1      -0.1735199047E-02       4    7    1        -0.9058624709E-01      0.2218868633E+00
          0                14           2             4    7     1      -0.1462178121E-02       4    7    1        -0.7633315976E-01      0.1869745821E+00
          0                15           2             4    7     1      -0.1233292733E-02       4    7    1        -0.6438417344E-01      0.1577060891E+00
          0                16           2             4    7     1      -0.1041041506E-02       4    7    1        -0.5434767777E-01      0.1331221536E+00
          0                17           2             4    7     1      -0.8793241639E-03       4    7    1        -0.4590520693E-01      0.1124427084E+00
          0                18           2             4    7     1      -0.7431425206E-03       4    7    1        -0.3879583012E-01      0.9502861551E-01
          0                19           2             4    7     1      -0.6283563805E-03       4    7    1        -0.3280340785E-01      0.8035045116E-01
          0                20           2             4    7     1      -0.5314887217E-03       4    7    1        -0.2774642183E-01      0.6796359523E-01
                                                   Max.-Head-Change                         Max.-Flux-Residual
  Residual-Control   Outer-Iter.   Inner-Iter.     Column Row Layer    Maximum-Head-Change  Column Row Layer    Maximum-Flux-Residual          L2-NORM 
          0                21           2             4    7     1      -0.4497269218E-03       4    7    1        -0.2347803878E-01      0.5750838594E-01
          0                22           2             4    7     1      -0.3806120740E-03       4    7    1        -0.1986989115E-01      0.4867039296E-01
          0                23           2             4    7     1      -0.3222162012E-03       4    7    1        -0.1682132874E-01      0.4120307856E-01
          0                24           2             4    7     1      -0.2728322520E-03       4    7    1        -0.1424323473E-01      0.3488815490E-01
          0                25           2             4    7     1      -0.2310599013E-03       4    7    1        -0.1206250501E-01      0.2954655766E-01
          0                26           2             4    7     1      -0.1957056336E-03       4    7    1        -0.1021683194E-01      0.2502566523E-01
          0                27           2             4    7     1      -0.1657744639E-03       4    7    1        -0.8654272258E-02      0.2119824614E-01
          0                28           2             4    7     1      -0.1404525024E-03       4    7    1        -0.7332336742E-02      0.1796022528E-01
          0                29           2             4    7     1      -0.1189808183E-03       4    7    1        -0.6211405352E-02      0.1521455487E-01
          0                30           1             4    7     1      -0.1008142025E-03       4    7    1        -0.5263015324E-02      0.1289151667E-01
          0                31           1             4    7     1      -0.8544086945E-04       4    7    1        -0.4460449038E-02      0.1092566718E-01

    ------------------------------------------------
       NWT REQUIRED           31 OUTER ITERATIONS 
       AND A TOTAL OF         60 INNER ITERATIONS.
    ------------------------------------------------

 NO OUTPUT CONTROL FOR STRESS PERIOD   20   TIME STEP   20
 
 SOLVING FOR HEAD 
                                                   Max.-Head-Change                         Max.-Flux-Residual
  Residual-Control   Outer-Iter.   Inner-Iter.     Column Row Layer    Maximum-Head-Change  Column Row Layer    Maximum-Flux-Residual          L2-NORM 
          0                 1           2             4    7     1      -0.1244733148E+00       4    7    1        -0.6554765938E+01      0.1390635453E+02
          0                 2           2             5    8     1      -0.8189928139E-02       5    8    1        -0.4505791960E+00      0.1095448588E+01
          0                 3           2             4    7     1      -0.1206448458E-01       4    7    1        -0.6304222019E+00      0.1502143946E+01
          0                 4           2             4    7     1      -0.8829879683E-02       5    8    1        -0.4638496253E+00      0.1133222957E+01
          0                 5           2             4    7     1      -0.7339305065E-02       4    7    1        -0.3831541688E+00      0.9380928638E+00
          0                 6           2             4    7     1      -0.6047649661E-02       5    8    1        -0.3157363779E+00      0.7733746415E+00
          0                 7           2             4    7     1      -0.5017463685E-02       4    7    1        -0.2619361719E+00      0.6415962739E+00
          0                 8           2             4    7     1      -0.4178152846E-02       4    7    1        -0.2181199629E+00      0.5342751996E+00
          0                 9           2             4    7     1      -0.3490175310E-02       4    7    1        -0.1822041772E+00      0.4463006941E+00
          0                10           2             4    7     1      -0.2922812893E-02       4    7    1        -0.1525850849E+00      0.3737501527E+00
                                                   Max.-Head-Change                         Max.-Flux-Residual
  Residual-Control   Outer-Iter.   Inner-Iter.     Column Row Layer    Maximum-Head-Change  Column Row Layer    Maximum-Flux-Residual          L2-NORM 
          0                11           2             4    7     1      -0.2452649035E-02       4    7    1        -0.1280402350E+00      0.3136286763E+00
          0                12           2             4    7     1      -0.2061565398E-02       4    7    1        -0.1076237600E+00      0.2636194652E+00
          0                13           2             4    7     1      -0.1735206766E-02       4    7    1        -0.9058624705E-01      0.2218868630E+00
          0                14           2             4    7     1      -0.1462184626E-02       4    7    1        -0.7633315974E-01      0.1869745818E+00
          0                15           2             4    7     1      -0.1233298219E-02       4    7    1        -0.6438417340E-01      0.1577060890E+00
          0                16           2             4    7     1      -0.1041046138E-02       4    7    1        -0.5434767776E-01      0.1331221535E+00
          0                17           2             4    7     1      -0.8793280753E-03       4    7    1        -0.4590520690E-01      0.1124427081E+00
          0                18           2             4    7     1      -0.7431458270E-03       4    7    1        -0.3879583012E-01      0.9502861529E-01
          0                19           2             4    7     1      -0.6283591755E-03       4    7    1        -0.3280340782E-01      0.8035045106E-01
          0                20           2             4    7     1      -0.5314910862E-03       4    7    1        -0.2774642183E-01      0.6796359506E-01
                                                   Max.-Head-Change                         Max.-Flux-Residual
  Residual-Control   Outer-Iter.   Inner-Iter.     Column Row Layer    Maximum-Head-Change  Column Row Layer    Maximum-Flux-Residual          L2-NORM 
          0                21           2             4    7     1      -0.4497289225E-03       4    7    1        -0.2347803876E-01      0.5750838583E-01
          0                22           2             4    7     1      -0.3806137668E-03       4    7    1        -0.1986989113E-01      0.4867039290E-01
          0                23           2             4    7     1      -0.3222176348E-03       4    7    1        -0.1682132875E-01      0.4120307854E-01
          0                24           2             4    7     1      -0.2728334658E-03       4    7    1        -0.1424323474E-01      0.3488815488E-01
          0                25           2             4    7     1      -0.2310609297E-03       4    7    1        -0.1206250501E-01      0.2954655687E-01
          0                26           2             4    7     1      -0.1957065039E-03       4    7    1        -0.1021683191E-01      0.2502566477E-01
          0                27           2             4    7     1      -0.1657752016E-03       4    7    1        -0.8654272257E-02      0.2119824606E-01
          0                28           2             4    7     1      -0.1404531267E-03       4    7    1        -0.7332336723E-02      0.1796022525E-01
          0                29           2             4    7     1      -0.1189813480E-03       4    7    1        -0.6211405370E-02      0.1521455486E-01
          0                30           1             4    7     1      -0.1008146509E-03       4    7    1        -0.5263015313E-02      0.1289151665E-01
          0                31           1             4    7     1      -0.8544124950E-04       4    7    1        -0.4460449026E-02      0.1092566716E-01

    ------------------------------------------------
       NWT REQUIRED           31 OUTER ITERATIONS 
       AND A TOTAL OF         60 INNER ITERATIONS.
    ------------------------------------------------

 NO OUTPUT CONTROL FOR STRESS PERIOD   20   TIME STEP   21
 
 SOLVING FOR HEAD 
                                                   Max.-Head-Change                         Max.-Flux-Residual
  Residual-Control   Outer-Iter.   Inner-Iter.     Column Row Layer    Maximum-Head-Change  Column Row Layer    Maximum-Flux-Residual          L2-NORM 
          0                 1           2             4    7     1      -0.1223813497E+00       4    7    1        -0.6445720017E+01      0.1373572689E+02
          0                 2           2             5    8     1      -0.8422439380E-02       5    8    1        -0.4631677532E+00      0.1126789076E+01
          0                 3           2             4    7     1      -0.1204361390E-01       4    7    1        -0.6293326158E+00      0.1499226917E+01
          0                 4           2             4    7     1      -0.8832011579E-02       5    8    1        -0.4639746594E+00      0.1133517717E+01
          0                 5           2             4    7     1      -0.7339128600E-02       4    7    1        -0.3831432889E+00      0.9380634315E+00
          0                 6           2             4    7     1      -0.6047697597E-02       5    8    1        -0.3157376252E+00      0.7733775826E+00
          0                 7           2             4    7     1      -0.5017484003E-02       4    7    1        -0.2619360630E+00      0.6415959793E+00
          0                 8           2             4    7     1      -0.4178171717E-02       4    7    1        -0.2181199737E+00      0.5342752286E+00
          0                 9           2             4    7     1      -0.3490190878E-02       4    7    1        -0.1822041760E+00      0.4463006908E+00
          0                10           2             4    7     1      -0.2922825950E-02       4    7    1        -0.1525850850E+00      0.3737501527E+00
                                                   Max.-Head-Change                         Max.-Flux-Residual
  Residual-Control   Outer-Iter.   Inner-Iter.     Column Row Layer    Maximum-Head-Change  Column Row Layer    Maximum-Flux-Residual          L2-NORM 
          0                11           2             4    7     1      -0.2452659989E-02       4    7    1        -0.1280402350E+00      0.3136286760E+00
          0                12           2             4    7     1      -0.2061574606E-02       4    7    1        -0.1076237600E+00      0.2636194650E+00
          0                13           2             4    7     1      -0.1735214516E-02       4    7    1        -0.9058624700E-01      0.2218868628E+00
          0                14           2             4    7     1      -0.1462191156E-02       4    7    1        -0.7633315970E-01      0.1869745816E+00
          0                15           2             4    7     1      -0.1233303727E-02       4    7    1        -0.6438417337E-01      0.1577060888E+00
          0                16           2             4    7     1      -0.1041050788E-02       4    7    1        -0.5434767774E-01      0.1331221534E+00
          0                17           2             4    7     1      -0.8793320028E-03       4    7    1        -0.4590520688E-01      0.1124427080E+00
          0                18           2             4    7     1      -0.7431491463E-03       4    7    1        -0.3879583010E-01      0.9502861519E-01
          0                19           2             4    7     1      -0.6283619817E-03       4    7    1        -0.3280340780E-01      0.8035045099E-01
          0                20           2             4    7     1      -0.5314934604E-03       4    7    1        -0.2774642183E-01      0.6796359502E-01
                                                   Max.-Head-Change                         Max.-Flux-Residual
  Residual-Control   Outer-Iter.   Inner-Iter.     Column Row Layer    Maximum-Head-Change  Column Row Layer    Maximum-Flux-Residual          L2-NORM 
          0                21           2             4    7     1      -0.4497309312E-03       4    7    1        -0.2347803876E-01      0.5750838577E-01
          0                22           2             4    7     1      -0.3806154669E-03       4    7    1        -0.1986989113E-01      0.4867039286E-01
          0                23           2             4    7     1      -0.3222190738E-03       4    7    1        -0.1682132874E-01      0.4120307849E-01
          0                24           2             4    7     1      -0.2728346845E-03       4    7    1        -0.1424323474E-01      0.3488815484E-01
          0                25           2             4    7     1      -0.2310619616E-03       4    7    1        -0.1206250501E-01      0.2954655685E-01
          0                26           2             4    7     1      -0.1957073783E-03       4    7    1        -0.1021683192E-01      0.2502566473E-01
          0                27           2             4    7     1      -0.1657759421E-03       4    7    1        -0.8654272246E-02      0.2119824603E-01
          0                28           2             4    7     1      -0.1404537541E-03       4    7    1        -0.7332336718E-02      0.1796022524E-01
          0                29           2             4    7     1      -0.1189818794E-03       4    7    1        -0.6211405364E-02      0.1521455485E-01
          0                30           1             4    7     1      -0.1008151014E-03       4    7    1        -0.5263015312E-02      0.1289151664E-01
          0                31           1             4    7     1      -0.8544163104E-04       4    7    1        -0.4460449015E-02      0.1092566714E-01

    ------------------------------------------------
       NWT REQUIRED           31 OUTER ITERATIONS 
       AND A TOTAL OF         60 INNER ITERATIONS.
    ------------------------------------------------

 NO OUTPUT CONTROL FOR STRESS PERIOD   20   TIME STEP   22
 
 SOLVING FOR HEAD 
                                                   Max.-Head-Change                         Max.-Flux-Residual
  Residual-Control   Outer-Iter.   Inner-Iter.     Column Row Layer    Maximum-Head-Change  Column Row Layer    Maximum-Flux-Residual          L2-NORM 
          0                 1           2             4    7     1      -0.1202982880E+00       4    7    1        -0.6337037384E+01      0.1357289280E+02
          0                 2           2             5    8     1      -0.8645758501E-02       5    8    1        -0.4752491066E+00      0.1157108011E+01
          0                 3           2             4    7     1      -0.1202283243E-01       4    7    1        -0.6282466418E+00      0.1496386526E+01
          0                 4           2             4    7     1      -0.8834134684E-02       5    8    1        -0.4640946777E+00      0.1133804701E+01
          0                 5           2             4    7     1      -0.7338953123E-02       4    7    1        -0.3831324448E+00      0.9380347740E+00
          0                 6           2             4    7     1      -0.6047745524E-02       5    8    1        -0.3157388226E+00      0.7733804465E+00
          0                 7           2             4    7     1      -0.5017504397E-02       4    7    1        -0.2619359545E+00      0.6415956925E+00
          0                 8           2             4    7     1      -0.4178190642E-02       4    7    1        -0.2181199844E+00      0.5342752569E+00
          0                 9           2             4    7     1      -0.3490206492E-02       4    7    1        -0.1822041748E+00      0.4463006876E+00
          0                10           2             4    7     1      -0.2922839045E-02       4    7    1        -0.1525850850E+00      0.3737501528E+00
                                                   Max.-Head-Change                         Max.-Flux-Residual
  Residual-Control   Outer-Iter.   Inner-Iter.     Column Row Layer    Maximum-Head-Change  Column Row Layer    Maximum-Flux-Residual          L2-NORM 
          0                11           2             4    7     1      -0.2452670976E-02       4    7    1        -0.1280402349E+00      0.3136286757E+00
          0                12           2             4    7     1      -0.2061583841E-02       4    7    1        -0.1076237599E+00      0.2636194649E+00
          0                13           2             4    7     1      -0.1735222290E-02       4    7    1        -0.9058624698E-01      0.2218868627E+00
          0                14           2             4    7     1      -0.1462197706E-02       4    7    1        -0.7633315966E-01      0.1869745815E+00
          0                15           2             4    7     1      -0.1233309252E-02       4    7    1        -0.6438417334E-01      0.1577060888E+00
          0                16           2             4    7     1      -0.1041055451E-02       4    7    1        -0.5434767772E-01      0.1331221533E+00
          0                17           2             4    7     1      -0.8793359418E-03       4    7    1        -0.4590520686E-01      0.1124427080E+00
          0                18           2             4    7     1      -0.7431524752E-03       4    7    1        -0.3879583009E-01      0.9502861515E-01
          0                19           2             4    7     1      -0.6283647972E-03       4    7    1        -0.3280340780E-01      0.8035045094E-01
          0                20           2             4    7     1      -0.5314958408E-03       4    7    1        -0.2774642180E-01      0.6796359498E-01
                                                   Max.-Head-Change                         Max.-Flux-Residual
  Residual-Control   Outer-Iter.   Inner-Iter.     Column Row Layer    Maximum-Head-Change  Column Row Layer    Maximum-Flux-Residual          L2-NORM 
          0                21           2             4    7     1      -0.4497329458E-03       4    7    1        -0.2347803875E-01      0.5750838573E-01
          0                22           2             4    7     1      -0.3806171721E-03       4    7    1        -0.1986989113E-01      0.4867039283E-01
          0                23           2             4    7     1      -0.3222205173E-03       4    7    1        -0.1682132874E-01      0.4120307846E-01
          0                24           2             4    7     1      -0.2728359065E-03       4    7    1        -0.1424323473E-01      0.3488815480E-01
          0                25           2             4    7     1      -0.2310629969E-03       4    7    1        -0.1206250502E-01      0.2954655682E-01
          0                26           2             4    7     1      -0.1957082549E-03       4    7    1        -0.1021683191E-01      0.2502566471E-01
          0                27           2             4    7     1      -0.1657766844E-03       4    7    1        -0.8654272242E-02      0.2119824602E-01
          0                28           2             4    7     1      -0.1404543834E-03       4    7    1        -0.7332336725E-02      0.1796022522E-01
          0                29           2             4    7     1      -0.1189824125E-03       4    7    1        -0.6211405362E-02      0.1521455482E-01
          0                30           1             4    7     1      -0.1008155528E-03       4    7    1        -0.5263015305E-02      0.1289151662E-01
          0                31           1             4    7     1      -0.8544201396E-04       4    7    1        -0.4460449021E-02      0.1092566714E-01

    ------------------------------------------------
       NWT REQUIRED           31 OUTER ITERATIONS 
       AND A TOTAL OF         60 INNER ITERATIONS.
    ------------------------------------------------

 NO OUTPUT CONTROL FOR STRESS PERIOD   20   TIME STEP   23
 
 SOLVING FOR HEAD 
                                                   Max.-Head-Change                         Max.-Flux-Residual
  Residual-Control   Outer-Iter.   Inner-Iter.     Column Row Layer    Maximum-Head-Change  Column Row Layer    Maximum-Flux-Residual          L2-NORM 
          0                 1           2             4    7     1      -0.1182257321E+00       4    7    1        -0.6228809478E+01      0.1341744104E+02
          0                 2           2             5    8     1      -0.8860405697E-02       5    8    1        -0.4868522368E+00      0.1186454442E+01
          0                 3           2             4    7     1      -0.1200215617E-01       4    7    1        -0.6271651942E+00      0.1493619854E+01
          0                 4           2             4    7     1      -0.8836247362E-02       5    8    1        -0.4642099664E+00      0.1134084203E+01
          0                 5           2             4    7     1      -0.7338778765E-02       4    7    1        -0.3831216454E+00      0.9380068620E+00
          0                 6           2             4    7     1      -0.6047793402E-02       5    8    1        -0.3157399730E+00      0.7733832361E+00
          0                 7           2             4    7     1      -0.5017524847E-02       4    7    1        -0.2619358465E+00      0.6415954132E+00
          0                 8           2             4    7     1      -0.4178209605E-02       4    7    1        -0.2181199952E+00      0.5342752845E+00
          0                 9           2             4    7     1      -0.3490222139E-02       4    7    1        -0.1822041737E+00      0.4463006846E+00
          0                10           2             4    7     1      -0.2922852168E-02       4    7    1        -0.1525850851E+00      0.3737501528E+00
                                                   Max.-Head-Change                         Max.-Flux-Residual
  Residual-Control   Outer-Iter.   Inner-Iter.     Column Row Layer    Maximum-Head-Change  Column Row Layer    Maximum-Flux-Residual          L2-NORM 
          0                11           2             4    7     1      -0.2452681985E-02       4    7    1        -0.1280402348E+00      0.3136286756E+00
          0                12           2             4    7     1      -0.2061593096E-02       4    7    1        -0.1076237599E+00      0.2636194647E+00
          0                13           2             4    7     1      -0.1735230079E-02       4    7    1        -0.9058624695E-01      0.2218868626E+00
          0                14           2             4    7     1      -0.1462204270E-02       4    7    1        -0.7633315962E-01      0.1869745814E+00
          0                15           2             4    7     1      -0.1233314788E-02       4    7    1        -0.6438417332E-01      0.1577060887E+00
          0                16           2             4    7     1      -0.1041060124E-02       4    7    1        -0.5434767769E-01      0.1331221533E+00
          0                17           2             4    7     1      -0.8793398895E-03       4    7    1        -0.4590520685E-01      0.1124427079E+00
          0                18           2             4    7     1      -0.7431558112E-03       4    7    1        -0.3879583006E-01      0.9502861507E-01
          0                19           2             4    7     1      -0.6283676172E-03       4    7    1        -0.3280340777E-01      0.8035045093E-01
          0                20           2             4    7     1      -0.5314982269E-03       4    7    1        -0.2774642181E-01      0.6796359495E-01
                                                   Max.-Head-Change                         Max.-Flux-Residual
  Residual-Control   Outer-Iter.   Inner-Iter.     Column Row Layer    Maximum-Head-Change  Column Row Layer    Maximum-Flux-Residual          L2-NORM 
          0                21           2             4    7     1      -0.4497349647E-03       4    7    1        -0.2347803875E-01      0.5750838571E-01
          0                22           2             4    7     1      -0.3806188806E-03       4    7    1        -0.1986989112E-01      0.4867039281E-01
          0                23           2             4    7     1      -0.3222219637E-03       4    7    1        -0.1682132873E-01      0.4120307846E-01
          0                24           2             4    7     1      -0.2728371315E-03       4    7    1        -0.1424323473E-01      0.3488815481E-01
          0                25           2             4    7     1      -0.2310640335E-03       4    7    1        -0.1206250499E-01      0.2954655682E-01
          0                26           2             4    7     1      -0.1957091337E-03       4    7    1        -0.1021683193E-01      0.2502566475E-01
          0                27           2             4    7     1      -0.1657774286E-03       4    7    1        -0.8654272242E-02      0.2119824601E-01
          0                28           2             4    7     1      -0.1404550142E-03       4    7    1        -0.7332336725E-02      0.1796022522E-01
          0                29           2             4    7     1      -0.1189829463E-03       4    7    1        -0.6211405347E-02      0.1521455485E-01
          0                30           1             4    7     1      -0.1008160051E-03       4    7    1        -0.5263015303E-02      0.1289151663E-01
          0                31           1             4    7     1      -0.8544239776E-04       4    7    1        -0.4460449038E-02      0.1092566719E-01

    ------------------------------------------------
       NWT REQUIRED           31 OUTER ITERATIONS 
       AND A TOTAL OF         60 INNER ITERATIONS.
    ------------------------------------------------

 NO OUTPUT CONTROL FOR STRESS PERIOD   20   TIME STEP   24
 
 SOLVING FOR HEAD 
                                                   Max.-Head-Change                         Max.-Flux-Residual
  Residual-Control   Outer-Iter.   Inner-Iter.     Column Row Layer    Maximum-Head-Change  Column Row Layer    Maximum-Flux-Residual          L2-NORM 
          0                 1           2             4    7     1      -0.1161655304E+00       4    7    1        -0.6121141131E+01      0.1326897764E+02
          0                 2           2             5    8     1      -0.9066892191E-02       5    8    1        -0.4980056761E+00      0.1214875244E+01
          0                 3           2             4    7     1      -0.1198160353E-01       4    7    1        -0.6260893216E+00      0.1490924018E+01
          0                 4           2             4    7     1      -0.8838347725E-02       5    8    1        -0.4643208074E+00      0.1134356511E+01
          0                 5           2             4    7     1      -0.7338605678E-02       4    7    1        -0.3831109014E+00      0.9379796668E+00
          0                 6           2             4    7     1      -0.6047841186E-02       5    6    1        -0.3157410934E+00      0.7733859542E+00
          0                 7           2             4    7     1      -0.5017545334E-02       4    7    1        -0.2619357390E+00      0.6415951412E+00
          0                 8           2             4    7     1      -0.4178228587E-02       4    7    1        -0.2181200058E+00      0.5342753115E+00
          0                 9           2             4    7     1      -0.3490237803E-02       4    7    1        -0.1822041726E+00      0.4463006818E+00
          0                10           2             4    7     1      -0.2922865304E-02       4    7    1        -0.1525850851E+00      0.3737501530E+00
                                                   Max.-Head-Change                         Max.-Flux-Residual
  Residual-Control   Outer-Iter.   Inner-Iter.     Column Row Layer    Maximum-Head-Change  Column Row Layer    Maximum-Flux-Residual          L2-NORM 
          0                11           2             4    7     1      -0.2452693008E-02       4    7    1        -0.1280402348E+00      0.3136286754E+00
          0                12           2             4    7     1      -0.2061602360E-02       4    7    1        -0.1076237598E+00      0.2636194646E+00
          0                13           2             4    7     1      -0.1735237877E-02       4    7    1        -0.9058624690E-01      0.2218868625E+00
          0                14           2             4    7     1      -0.1462210841E-02       4    7    1        -0.7633315961E-01      0.1869745814E+00
          0                15           2             4    7     1      -0.1233320330E-02       4    7    1        -0.6438417328E-01      0.1577060886E+00
          0                16           2             4    7     1      -0.1041064803E-02       4    7    1        -0.5434767769E-01      0.1331221532E+00
          0                17           2             4    7     1      -0.8793438413E-03       4    7    1        -0.4590520684E-01      0.1124427079E+00
          0                18           2             4    7     1      -0.7431591505E-03       4    7    1        -0.3879583004E-01      0.9502861505E-01
          0                19           2             4    7     1      -0.6283704413E-03       4    7    1        -0.3280340777E-01      0.8035045087E-01
          0                20           2             4    7     1      -0.5315006153E-03       4    7    1        -0.2774642179E-01      0.6796359492E-01
                                                   Max.-Head-Change                         Max.-Flux-Residual
  Residual-Control   Outer-Iter.   Inner-Iter.     Column Row Layer    Maximum-Head-Change  Column Row Layer    Maximum-Flux-Residual          L2-NORM 
          0                21           2             4    7     1      -0.4497369857E-03       4    7    1        -0.2347803873E-01      0.5750838569E-01
          0                22           2             4    7     1      -0.3806205908E-03       4    7    1        -0.1986989110E-01      0.4867039279E-01
          0                23           2             4    7     1      -0.3222234116E-03       4    7    1        -0.1682132873E-01      0.4120307843E-01
          0                24           2             4    7     1      -0.2728383575E-03       4    7    1        -0.1424323472E-01      0.3488815479E-01
          0                25           2             4    7     1      -0.2310650721E-03       4    7    1        -0.1206250500E-01      0.2954655678E-01
          0                26           2             4    7     1      -0.1957100128E-03       4    7    1        -0.1021683192E-01      0.2502566471E-01
          0                27           2             4    7     1      -0.1657781737E-03       4    7    1        -0.8654272253E-02      0.2119824601E-01
          0                28           2             4    7     1      -0.1404556453E-03       4    7    1        -0.7332336731E-02      0.1796022521E-01
          0                29           2             4    7     1      -0.1189834812E-03       4    7    1        -0.6211405352E-02      0.1521455481E-01
          0                30           1             4    7     1      -0.1008164582E-03       4    7    1        -0.5263015296E-02      0.1289151660E-01
          0                31           1             4    7     1      -0.8544278130E-04       4    7    1        -0.4460449023E-02      0.1092566713E-01

    ------------------------------------------------
       NWT REQUIRED           31 OUTER ITERATIONS 
       AND A TOTAL OF         60 INNER ITERATIONS.
    ------------------------------------------------

 NO OUTPUT CONTROL FOR STRESS PERIOD   20   TIME STEP   25
 
 SOLVING FOR HEAD 
                                                   Max.-Head-Change                         Max.-Flux-Residual
  Residual-Control   Outer-Iter.   Inner-Iter.     Column Row Layer    Maximum-Head-Change  Column Row Layer    Maximum-Flux-Residual          L2-NORM 
          0                 1           2             4    7     1      -0.1141191078E+00       4    7    1        -0.6014113648E+01      0.1312714607E+02
          0                 2           2             5    8     1      -0.9265635608E-02       5    8    1        -0.5087335943E+00      0.1242430708E+01
          0                 3           2             4    7     1      -0.1196118872E-01       4    7    1        -0.6250198368E+00      0.1488296588E+01
          0                 4           2             4    7     1      -0.8840434319E-02       5    8    1        -0.4644274365E+00      0.1134621880E+01
          0                 5           2             4    7     1      -0.7338433980E-02       4    7    1        -0.3831002208E+00      0.9379531643E+00
          0                 6           2             4    7     1      -0.6047888840E-02       5    6    1        -0.3157421747E+00      0.7733886041E+00
          0                 7           2             4    7     1      -0.5017565841E-02       4    7    1        -0.2619356321E+00      0.6415948768E+00
          0                 8           2             4    7     1      -0.4178247573E-02       4    7    1        -0.2181200165E+00      0.5342753384E+00
          0                 9           2             4    7     1      -0.3490253471E-02       4    7    1        -0.1822041714E+00      0.4463006794E+00
          0                10           2             4    7     1      -0.2922878445E-02       4    7    1        -0.1525850852E+00      0.3737501536E+00
                                                   Max.-Head-Change                         Max.-Flux-Residual
  Residual-Control   Outer-Iter.   Inner-Iter.     Column Row Layer    Maximum-Head-Change  Column Row Layer    Maximum-Flux-Residual          L2-NORM 
          0                11           2             4    7     1      -0.2452704032E-02       4    7    1        -0.1280402347E+00      0.3136286756E+00
          0                12           2             4    7     1      -0.2061611627E-02       4    7    1        -0.1076237598E+00      0.2636194649E+00
          0                13           2             4    7     1      -0.1735245677E-02       4    7    1        -0.9058624688E-01      0.2218868627E+00
          0                14           2             4    7     1      -0.1462217414E-02       4    7    1        -0.7633315959E-01      0.1869745815E+00
          0                15           2             4    7     1      -0.1233325875E-02       4    7    1        -0.6438417328E-01      0.1577060887E+00
          0                16           2             4    7     1      -0.1041069482E-02       4    7    1        -0.5434767765E-01      0.1331221533E+00
          0                17           2             4    7     1      -0.8793477937E-03       4    7    1        -0.4590520682E-01      0.1124427079E+00
          0                18           2             4    7     1      -0.7431624911E-03       4    7    1        -0.3879583003E-01      0.9502861512E-01
          0                19           2             4    7     1      -0.6283732660E-03       4    7    1        -0.3280340776E-01      0.8035045093E-01
          0                20           2             4    7     1      -0.5315030044E-03       4    7    1        -0.2774642177E-01      0.6796359496E-01
                                                   Max.-Head-Change                         Max.-Flux-Residual
  Residual-Control   Outer-Iter.   Inner-Iter.     Column Row Layer    Maximum-Head-Change  Column Row Layer    Maximum-Flux-Residual          L2-NORM 
          0                21           2             4    7     1      -0.4497390074E-03       4    7    1        -0.2347803873E-01      0.5750838572E-01
          0                22           2             4    7     1      -0.3806223015E-03       4    7    1        -0.1986989109E-01      0.4867039282E-01
          0                23           2             4    7     1      -0.3222248601E-03       4    7    1        -0.1682132873E-01      0.4120307847E-01
          0                24           2             4    7     1      -0.2728395841E-03       4    7    1        -0.1424323473E-01      0.3488815481E-01
          0                25           2             4    7     1      -0.2310661108E-03       4    7    1        -0.1206250499E-01      0.2954655681E-01
          0                26           2             4    7     1      -0.1957108926E-03       4    7    1        -0.1021683191E-01      0.2502566471E-01
          0                27           2             4    7     1      -0.1657789189E-03       4    7    1        -0.8654272240E-02      0.2119824602E-01
          0                28           2             4    7     1      -0.1404562765E-03       4    7    1        -0.7332336718E-02      0.1796022520E-01
          0                29           2             4    7     1      -0.1189840157E-03       4    7    1        -0.6211405355E-02      0.1521455481E-01
          0                30           1             4    7     1      -0.1008169118E-03       4    7    1        -0.5263015324E-02      0.1289151662E-01
          0                31           1             4    7     1      -0.8544316572E-04       4    7    1        -0.4460449034E-02      0.1092566713E-01

    ------------------------------------------------
       NWT REQUIRED           31 OUTER ITERATIONS 
       AND A TOTAL OF         60 INNER ITERATIONS.
    ------------------------------------------------

 NO OUTPUT CONTROL FOR STRESS PERIOD   20   TIME STEP   26
 
 SOLVING FOR HEAD 
                                                   Max.-Head-Change                         Max.-Flux-Residual
  Residual-Control   Outer-Iter.   Inner-Iter.     Column Row Layer    Maximum-Head-Change  Column Row Layer    Maximum-Flux-Residual          L2-NORM 
          0                 1           2             4    7     1      -0.1120876110E+00       4    7    1        -0.5907793630E+01      0.1299158007E+02
          0                 2           2             5    8     1      -0.9456900968E-02       5    8    1        -0.5190601120E+00      0.1269240165E+01
          0                 3           2             4    7     1      -0.1194092319E-01       4    7    1        -0.6239574058E+00      0.1485735340E+01
          0                 4           2             4    7     1      -0.8842505968E-02       5    8    1        -0.4645300240E+00      0.1134880550E+01
          0                 5           2             4    7     1      -0.7338263762E-02       4    7    1        -0.3830896103E+00      0.9379273306E+00
          0                 6           2             4    7     1      -0.6047936335E-02       5    6    1        -0.3157432172E+00      0.7733911876E+00
          0                 7           2             4    7     1      -0.5017586355E-02       4    7    1        -0.2619355259E+00      0.6415946195E+00
          0                 8           2             4    7     1      -0.4178266552E-02       4    7    1        -0.2181200270E+00      0.5342753650E+00
          0                 9           2             4    7     1      -0.3490269134E-02       4    7    1        -0.1822041703E+00      0.4463006775E+00
          0                10           2             4    7     1      -0.2922891581E-02       4    7    1        -0.1525850853E+00      0.3737501543E+00
                                                   Max.-Head-Change                         Max.-Flux-Residual
  Residual-Control   Outer-Iter.   Inner-Iter.     Column Row Layer    Maximum-Head-Change  Column Row Layer    Maximum-Flux-Residual          L2-NORM 
          0                11           2             4    7     1      -0.2452715053E-02       4    7    1        -0.1280402347E+00      0.3136286761E+00
          0                12           2             4    7     1      -0.2061620891E-02       4    7    1        -0.1076237598E+00      0.2636194652E+00
          0                13           2             4    7     1      -0.1735253474E-02       4    7    1        -0.9058624687E-01      0.2218868630E+00
          0                14           2             4    7     1      -0.1462223984E-02       4    7    1        -0.7633315956E-01      0.1869745818E+00
          0                15           2             4    7     1      -0.1233331417E-02       4    7    1        -0.6438417327E-01      0.1577060890E+00
          0                16           2             4    7     1      -0.1041074160E-02       4    7    1        -0.5434767763E-01      0.1331221535E+00
          0                17           2             4    7     1      -0.8793517445E-03       4    7    1        -0.4590520679E-01      0.1124427081E+00
          0                18           2             4    7     1      -0.7431658311E-03       4    7    1        -0.3879583005E-01      0.9502861527E-01
          0                19           2             4    7     1      -0.6283760891E-03       4    7    1        -0.3280340774E-01      0.8035045104E-01
          0                20           2             4    7     1      -0.5315053931E-03       4    7    1        -0.2774642178E-01      0.6796359509E-01
                                                   Max.-Head-Change                         Max.-Flux-Residual
  Residual-Control   Outer-Iter.   Inner-Iter.     Column Row Layer    Maximum-Head-Change  Column Row Layer    Maximum-Flux-Residual          L2-NORM 
          0                21           2             4    7     1      -0.4497410281E-03       4    7    1        -0.2347803871E-01      0.5750838582E-01
          0                22           2             4    7     1      -0.3806240122E-03       4    7    1        -0.1986989109E-01      0.4867039288E-01
          0                23           2             4    7     1      -0.3222263077E-03       4    7    1        -0.1682132871E-01      0.4120307852E-01
          0                24           2             4    7     1      -0.2728408103E-03       4    7    1        -0.1424323473E-01      0.3488815488E-01
          0                25           2             4    7     1      -0.2310671492E-03       4    7    1        -0.1206250498E-01      0.2954655685E-01
          0                26           2             4    7     1      -0.1957117718E-03       4    7    1        -0.1021683190E-01      0.2502566477E-01
          0                27           2             4    7     1      -0.1657796640E-03       4    7    1        -0.8654272241E-02      0.2119824605E-01
          0                28           2             4    7     1      -0.1404569076E-03       4    7    1        -0.7332336713E-02      0.1796022525E-01
          0                29           2             4    7     1      -0.1189845507E-03       4    7    1        -0.6211405350E-02      0.1521455486E-01
          0                30           1             4    7     1      -0.1008173645E-03       4    7    1        -0.5263015296E-02      0.1289151665E-01
          0                31           1             4    7     1      -0.8544354977E-04       4    7    1        -0.4460449025E-02      0.1092566717E-01

    ------------------------------------------------
       NWT REQUIRED           31 OUTER ITERATIONS 
       AND A TOTAL OF         60 INNER ITERATIONS.
    ------------------------------------------------

 NO OUTPUT CONTROL FOR STRESS PERIOD   20   TIME STEP   27
 
 SOLVING FOR HEAD 
                                                   Max.-Head-Change                         Max.-Flux-Residual
  Residual-Control   Outer-Iter.   Inner-Iter.     Column Row Layer    Maximum-Head-Change  Column Row Layer    Maximum-Flux-Residual          L2-NORM 
          0                 1           2             4    7     1      -0.1100722009E+00       4    7    1        -0.5802247778E+01      0.1286177632E+02
          0                 2           2             5    8     1      -0.9634360703E-02       5    8    1        -0.5284990353E+00      0.1294916782E+01
          0                 3           2             4    7     1      -0.1192080880E-01       4    7    1        -0.6229026958E+00      0.1483235168E+01
          0                 4           2             4    7     1      -0.8844563971E-02       5    8    1        -0.4646239661E+00      0.1135132882E+01
          0                 5           2             4    7     1      -0.7338096112E-02       4    7    1        -0.3830790767E+00      0.9379021244E+00
          0                 6           2             4    7     1      -0.6047984565E-02       5    6    1        -0.3157442229E+00      0.7733937074E+00
          0                 7           2             4    7     1      -0.5017607618E-02       4    7    1        -0.2619354206E+00      0.6415943677E+00
          0                 8           2             4    7     1      -0.4178286139E-02       4    7    1        -0.2181200375E+00      0.5342753902E+00
          0                 9           2             4    7     1      -0.3490285307E-02       4    7    1        -0.1822041692E+00      0.4463006750E+00
          0                10           2             4    7     1      -0.2922905144E-02       4    7    1        -0.1525850853E+00      0.3737501546E+00
                                                   Max.-Head-Change                         Max.-Flux-Residual
  Residual-Control   Outer-Iter.   Inner-Iter.     Column Row Layer    Maximum-Head-Change  Column Row Layer    Maximum-Flux-Residual          L2-NORM 
          0                11           2             4    7     1      -0.2452726433E-02       4    7    1        -0.1280402346E+00      0.3136286761E+00
          0                12           2             4    7     1      -0.2061630456E-02       4    7    1        -0.1076237598E+00      0.2636194653E+00
          0                13           2             4    7     1      -0.1735261525E-02       4    7    1        -0.9058624684E-01      0.2218868630E+00
          0                14           2             4    7     1      -0.1462230769E-02       4    7    1        -0.7633315955E-01      0.1869745818E+00
          0                15           2             4    7     1      -0.1233337138E-02       4    7    1        -0.6438417324E-01      0.1577060890E+00
          0                16           2             4    7     1      -0.1041078991E-02       4    7    1        -0.5434767764E-01      0.1331221535E+00
          0                17           2             4    7     1      -0.8793558245E-03       4    7    1        -0.4590520677E-01      0.1124427081E+00
          0                18           2             4    7     1      -0.7431692785E-03       4    7    1        -0.3879583002E-01      0.9502861528E-01
          0                19           2             4    7     1      -0.6283790051E-03       4    7    1        -0.3280340775E-01      0.8035045108E-01
          0                20           2             4    7     1      -0.5315078590E-03       4    7    1        -0.2774642177E-01      0.6796359508E-01
                                                   Max.-Head-Change                         Max.-Flux-Residual
  Residual-Control   Outer-Iter.   Inner-Iter.     Column Row Layer    Maximum-Head-Change  Column Row Layer    Maximum-Flux-Residual          L2-NORM 
          0                21           2             4    7     1      -0.4497431147E-03       4    7    1        -0.2347803870E-01      0.5750838582E-01
          0                22           2             4    7     1      -0.3806257779E-03       4    7    1        -0.1986989108E-01      0.4867039289E-01
          0                23           2             4    7     1      -0.3222278029E-03       4    7    1        -0.1682132871E-01      0.4120307854E-01
          0                24           2             4    7     1      -0.2728420759E-03       4    7    1        -0.1424323472E-01      0.3488815489E-01
          0                25           2             4    7     1      -0.2310682213E-03       4    7    1        -0.1206250499E-01      0.2954655686E-01
          0                26           2             4    7     1      -0.1957126801E-03       4    7    1        -0.1021683190E-01      0.2502566477E-01
          0                27           2             4    7     1      -0.1657804329E-03       4    7    1        -0.8654272231E-02      0.2119824610E-01
          0                28           2             4    7     1      -0.1404575590E-03       4    7    1        -0.7332336713E-02      0.1796022527E-01
          0                29           2             4    7     1      -0.1189851030E-03       4    7    1        -0.6211405365E-02      0.1521455487E-01
          0                30           1             4    7     1      -0.1008178321E-03       4    7    1        -0.5263015288E-02      0.1289151665E-01
          0                31           1             4    7     1      -0.8544394607E-04       4    7    1        -0.4460449025E-02      0.1092566716E-01

    ------------------------------------------------
       NWT REQUIRED           31 OUTER ITERATIONS 
       AND A TOTAL OF         60 INNER ITERATIONS.
    ------------------------------------------------

 NO OUTPUT CONTROL FOR STRESS PERIOD   20   TIME STEP   28
 
 SOLVING FOR HEAD 
                                                   Max.-Head-Change                         Max.-Flux-Residual
  Residual-Control   Outer-Iter.   Inner-Iter.     Column Row Layer    Maximum-Head-Change  Column Row Layer    Maximum-Flux-Residual          L2-NORM 
          0                 1           2             4    7     1      -0.1080746985E+00       4    7    1        -0.5697557307E+01      0.1273768197E+02
          0                 2           2             5    8     1      -0.9822461950E-02       5    8    1        -0.5386496247E+00      0.1320086045E+01
          0                 3           2             4    7     1      -0.1190089442E-01       4    7    1        -0.6218565197E+00      0.1480797831E+01
          0                 4           2             4    7     1      -0.8846600369E-02       5    8    1        -0.4647249649E+00      0.1135378988E+01
          0                 5           2             4    7     1      -0.7337929309E-02       4    7    1        -0.3830686280E+00      0.9378775413E+00
          0                 6           2             4    7     1      -0.6048031628E-02       5    6    1        -0.3157451937E+00      0.7733961650E+00
          0                 7           2             4    7     1      -0.5017628100E-02       4    7    1        -0.2619353160E+00      0.6415941221E+00
          0                 8           2             4    7     1      -0.4178305057E-02       4    7    1        -0.2181200479E+00      0.5342754149E+00
          0                 9           2             4    7     1      -0.3490300924E-02       4    7    1        -0.1822041681E+00      0.4463006727E+00
          0                10           2             4    7     1      -0.2922918241E-02       4    7    1        -0.1525850854E+00      0.3737501550E+00
                                                   Max.-Head-Change                         Max.-Flux-Residual
  Residual-Control   Outer-Iter.   Inner-Iter.     Column Row Layer    Maximum-Head-Change  Column Row Layer    Maximum-Flux-Residual          L2-NORM 
          0                11           2             4    7     1      -0.2452737421E-02       4    7    1        -0.1280402346E+00      0.3136286761E+00
          0                12           2             4    7     1      -0.2061639692E-02       4    7    1        -0.1076237598E+00      0.2636194653E+00
          0                13           2             4    7     1      -0.1735269299E-02       4    7    1        -0.9058624682E-01      0.2218868631E+00
          0                14           2             4    7     1      -0.1462237319E-02       4    7    1        -0.7633315953E-01      0.1869745819E+00
          0                15           2             4    7     1      -0.1233342664E-02       4    7    1        -0.6438417324E-01      0.1577060890E+00
          0                16           2             4    7     1      -0.1041083655E-02       4    7    1        -0.5434767763E-01      0.1331221536E+00
          0                17           2             4    7     1      -0.8793597638E-03       4    7    1        -0.4590520676E-01      0.1124427081E+00
          0                18           2             4    7     1      -0.7431726081E-03       4    7    1        -0.3879583002E-01      0.9502861529E-01
          0                19           2             4    7     1      -0.6283818199E-03       4    7    1        -0.3280340773E-01      0.8035045107E-01
          0                20           2             4    7     1      -0.5315102403E-03       4    7    1        -0.2774642177E-01      0.6796359511E-01
                                                   Max.-Head-Change                         Max.-Flux-Residual
  Residual-Control   Outer-Iter.   Inner-Iter.     Column Row Layer    Maximum-Head-Change  Column Row Layer    Maximum-Flux-Residual          L2-NORM 
          0                21           2             4    7     1      -0.4497451296E-03       4    7    1        -0.2347803870E-01      0.5750838584E-01
          0                22           2             4    7     1      -0.3806274831E-03       4    7    1        -0.1986989108E-01      0.4867039290E-01
          0                23           2             4    7     1      -0.3222292466E-03       4    7    1        -0.1682132871E-01      0.4120307854E-01
          0                24           2             4    7     1      -0.2728432984E-03       4    7    1        -0.1424323472E-01      0.3488815488E-01
          0                25           2             4    7     1      -0.2310692564E-03       4    7    1        -0.1206250499E-01      0.2954655687E-01
          0                26           2             4    7     1      -0.1957135569E-03       4    7    1        -0.1021683191E-01      0.2502566476E-01
          0                27           2             4    7     1      -0.1657811754E-03       4    7    1        -0.8654272238E-02      0.2119824607E-01
          0                28           2             4    7     1      -0.1404581888E-03       4    7    1        -0.7332336733E-02      0.1796022524E-01
          0                29           2             4    7     1      -0.1189856359E-03       4    7    1        -0.6211405351E-02      0.1521455486E-01
          0                30           1             4    7     1      -0.1008182839E-03       4    7    1        -0.5263015289E-02      0.1289151664E-01
          0                31           1             4    7     1      -0.8544432862E-04       4    7    1        -0.4460449010E-02      0.1092566715E-01

    ------------------------------------------------
       NWT REQUIRED           31 OUTER ITERATIONS 
       AND A TOTAL OF         60 INNER ITERATIONS.
    ------------------------------------------------

 NO OUTPUT CONTROL FOR STRESS PERIOD   20   TIME STEP   29
 
 SOLVING FOR HEAD 
                                                   Max.-Head-Change                         Max.-Flux-Residual
  Residual-Control   Outer-Iter.   Inner-Iter.     Column Row Layer    Maximum-Head-Change  Column Row Layer    Maximum-Flux-Residual          L2-NORM 
          0                 1           2             4    7     1      -0.1060954213E+00       4    7    1        -0.5593768666E+01      0.1264040759E+02
          0                 2           2             5    8     1      -0.9995802932E-02       5    8    1        -0.5480030850E+00      0.1346320821E+01
          0                 3           2             4    7     1      -0.1188115087E-01       4    7    1        -0.6208193413E+00      0.1478427583E+01
          0                 4           2             4    7     1      -0.8848619584E-02       5    8    1        -0.4648178681E+00      0.1135618947E+01
          0                 5           2             4    7     1      -0.7337764141E-02       4    7    1        -0.3830582689E+00      0.9378535763E+00
          0                 6           2             4    7     1      -0.6048078458E-02       5    6    1        -0.3157461291E+00      0.7733985609E+00
          0                 7           2             4    7     1      -0.5017648549E-02       4    7    1        -0.2619352124E+00      0.6415938829E+00
          0                 8           2             4    7     1      -0.4178323932E-02       4    7    1        -0.2181200582E+00      0.5342754391E+00
          0                 9           2             4    7     1      -0.3490316505E-02       4    7    1        -0.1822041671E+00      0.4463006704E+00
          0                10           2             4    7     1      -0.2922931308E-02       4    7    1        -0.1525850855E+00      0.3737501553E+00
                                                   Max.-Head-Change                         Max.-Flux-Residual
  Residual-Control   Outer-Iter.   Inner-Iter.     Column Row Layer    Maximum-Head-Change  Column Row Layer    Maximum-Flux-Residual          L2-NORM 
          0                11           2             4    7     1      -0.2452748384E-02       4    7    1        -0.1280402346E+00      0.3136286762E+00
          0                12           2             4    7     1      -0.2061648908E-02       4    7    1        -0.1076237597E+00      0.2636194654E+00
          0                13           2             4    7     1      -0.1735277055E-02       4    7    1        -0.9058624679E-01      0.2218868631E+00
          0                14           2             4    7     1      -0.1462243855E-02       4    7    1        -0.7633315952E-01      0.1869745819E+00
          0                15           2             4    7     1      -0.1233348176E-02       4    7    1        -0.6438417320E-01      0.1577060891E+00
          0                16           2             4    7     1      -0.1041088309E-02       4    7    1        -0.5434767762E-01      0.1331221536E+00
          0                17           2             4    7     1      -0.8793636948E-03       4    7    1        -0.4590520677E-01      0.1124427082E+00
          0                18           2             4    7     1      -0.7431759299E-03       4    7    1        -0.3879583001E-01      0.9502861533E-01
          0                19           2             4    7     1      -0.6283846290E-03       4    7    1        -0.3280340774E-01      0.8035045113E-01
          0                20           2             4    7     1      -0.5315126162E-03       4    7    1        -0.2774642176E-01      0.6796359513E-01
                                                   Max.-Head-Change                         Max.-Flux-Residual
  Residual-Control   Outer-Iter.   Inner-Iter.     Column Row Layer    Maximum-Head-Change  Column Row Layer    Maximum-Flux-Residual          L2-NORM 
          0                21           2             4    7     1      -0.4497471397E-03       4    7    1        -0.2347803868E-01      0.5750838584E-01
          0                22           2             4    7     1      -0.3806291845E-03       4    7    1        -0.1986989106E-01      0.4867039291E-01
          0                23           2             4    7     1      -0.3222306868E-03       4    7    1        -0.1682132870E-01      0.4120307855E-01
          0                24           2             4    7     1      -0.2728445177E-03       4    7    1        -0.1424323470E-01      0.3488815489E-01
          0                25           2             4    7     1      -0.2310702893E-03       4    7    1        -0.1206250498E-01      0.2954655688E-01
          0                26           2             4    7     1      -0.1957144318E-03       4    7    1        -0.1021683190E-01      0.2502566477E-01
          0                27           2             4    7     1      -0.1657819166E-03       4    7    1        -0.8654272227E-02      0.2119824609E-01
          0                28           2             4    7     1      -0.1404588161E-03       4    7    1        -0.7332336706E-02      0.1796022526E-01
          0                29           2             4    7     1      -0.1189861680E-03       4    7    1        -0.6211405361E-02      0.1521455487E-01
          0                30           1             4    7     1      -0.1008187346E-03       4    7    1        -0.5263015287E-02      0.1289151664E-01
          0                31           1             4    7     1      -0.8544471053E-04       4    7    1        -0.4460449011E-02      0.1092566715E-01

    ------------------------------------------------
       NWT REQUIRED           31 OUTER ITERATIONS 
       AND A TOTAL OF         60 INNER ITERATIONS.
    ------------------------------------------------

 NO OUTPUT CONTROL FOR STRESS PERIOD   20   TIME STEP   30



 STREAM LISTING     PERIOD     20   STEP       30

 LAYER ROW COL. STREAM  RCH.  FLOW INTO     FLOW TO   FLOW OUT OF   OVRLND.     DIRECT     STREAM       STREAM     STREAM     STREAM   STREAMBED  STREAMBED
                SEG.NO.  NO.  STRM. RCH.    AQUIFER    STRM. RCH.    RUNOFF     PRECIP       ET          HEAD       DEPTH      WIDTH   CONDCTNC.   GRADIENT

   1    1    1     1     1    4.3035E+01  3.1412E-01   4.2721E+01  0.000E+00  0.000E+00  0.000E+00  1.09440E+03  1.353E+00  1.604E+01  7.216E-02  1.451E+00
   1    2    2     1     2    4.2721E+01  4.8658E-01   4.2235E+01  0.000E+00  0.000E+00  0.000E+00  1.08941E+03  1.350E+00  1.598E+01  1.118E-01  1.450E+00
   1    3    3     1     3    4.2235E+01  4.1507E-01   4.1819E+01  0.000E+00  0.000E+00  0.000E+00  1.08377E+03  1.347E+00  1.591E+01  9.548E-02  1.449E+00
   1    3    4     1     4    4.1819E+01  3.8230E-01   4.1437E+01  0.000E+00  0.000E+00  0.000E+00  1.07875E+03  1.344E+00  1.586E+01  8.800E-02  1.448E+00
   1    4    5     2     1    3.9437E+01  3.5748E-01   3.9080E+01  0.000E+00  0.000E+00  0.000E+00  1.07352E+03  1.583E+00  1.200E+01  7.800E-02  1.528E+00
   1    5    6     2     2    3.9080E+01  2.7453E-01   3.8805E+01  0.000E+00  0.000E+00  0.000E+00  1.06808E+03  1.575E+00  1.200E+01  6.000E-02  1.525E+00
   1    6    6     2     3    3.8805E+01  2.7413E-01   3.8531E+01  0.000E+00  0.000E+00  0.000E+00  1.06336E+03  1.569E+00  1.200E+01  6.000E-02  1.523E+00
   1    7    6     2     4    3.8531E+01  2.7372E-01   3.8257E+01  0.000E+00  0.000E+00  0.000E+00  1.05864E+03  1.562E+00  1.200E+01  6.000E-02  1.521E+00
   1    8    6     2     5    3.8257E+01  2.7332E-01   3.7984E+01  0.000E+00  0.000E+00  0.000E+00  1.05391E+03  1.555E+00  1.200E+01  6.000E-02  1.518E+00
   1    3    5     3     1    2.0000E+00  2.8252E-01   1.7175E+00  0.000E+00  0.000E+00  0.000E+00  1.07555E+03  1.909E+00  9.636E+00  7.227E-02  1.955E+00
   1    3    6     3     2    1.7175E+00  2.4905E-01   1.4684E+00  0.000E+00  0.000E+00  0.000E+00  1.07264E+03  1.727E+00  8.909E+00  6.682E-02  1.864E+00
   1    3    7     3     3    1.4684E+00  1.9718E-01   1.2712E+00  0.000E+00  0.000E+00  0.000E+00  1.06987E+03  1.555E+00  8.218E+00  5.547E-02  1.777E+00
   1    4    8     3     4    1.2712E+00  2.2567E-01   1.0456E+00  0.000E+00  0.000E+00  0.000E+00  1.06682E+03  1.364E+00  7.455E+00  6.709E-02  1.682E+00
   1    5    8     3     5    1.0456E+00  1.5790E-01   8.8768E-01  0.000E+00  0.000E+00  0.000E+00  1.06362E+03  1.164E+00  6.655E+00  4.991E-02  1.582E+00
   1    6    8     3     6    8.8768E-01  5.5980E-02   8.3170E-01  0.000E+00  0.000E+00  0.000E+00  1.06158E+03  1.036E+00  6.145E+00  1.844E-02  1.518E+00
   1    5   10     4     1    1.0000E+01  9.0919E-02   9.9091E+00  0.000E+00  0.000E+00  0.000E+00  1.07836E+03  6.368E-01  1.000E+01  2.500E-02  1.212E+00
   1    5    9     4     2    9.9091E+00  1.8158E-01   9.7275E+00  0.000E+00  0.000E+00  0.000E+00  1.07154E+03  6.315E-01  1.000E+01  5.000E-02  1.211E+00
   1    6    8     4     3    9.7275E+00  1.2689E-01   9.6006E+00  0.000E+00  0.000E+00  0.000E+00  1.06381E+03  6.256E-01  1.000E+01  3.500E-02  1.209E+00
   1    6    8     5     1    1.0432E+01  2.2686E-01   1.0205E+01  0.000E+00  0.000E+00  0.000E+00  1.05868E+03  6.790E-01  1.542E+01  6.166E-02  1.226E+00
   1    7    7     5     2    1.0205E+01  2.7894E-01   9.9265E+00  0.000E+00  0.000E+00  0.000E+00  1.05417E+03  6.732E-01  1.519E+01  7.594E-02  1.224E+00
   1    8    7     5     3    9.9265E+00  1.9221E-01   9.7343E+00  0.000E+00  0.000E+00  0.000E+00  1.04992E+03  6.676E-01  1.497E+01  5.241E-02  1.223E+00
   1    8    6     5     4    9.7343E+00  1.3577E-01   9.5985E+00  0.000E+00  0.000E+00  0.000E+00  1.04691E+03  6.637E-01  1.482E+01  3.706E-02  1.221E+00
   1    9    6     6     1    4.7583E+01  2.8760E-01   4.7295E+01  0.000E+00  0.000E+00  0.000E+00  1.04452E+03  1.793E+00  1.200E+01  6.000E-02  1.598E+00
   1   10    7     6     2    4.7295E+01  2.8721E-01   4.7008E+01  0.000E+00  0.000E+00  0.000E+00  1.03997E+03  1.787E+00  1.200E+01  6.000E-02  1.596E+00
   1   11    7     6     3    4.7008E+01  2.8681E-01   4.6721E+01  0.000E+00  0.000E+00  0.000E+00  1.03542E+03  1.780E+00  1.200E+01  6.000E-02  1.593E+00
   1   12    7     6     4    4.6721E+01  2.8642E-01   4.6434E+01  0.000E+00  0.000E+00  0.000E+00  1.03086E+03  1.774E+00  1.200E+01  6.000E-02  1.591E+00
   1   13    7     6     5    4.6434E+01  1.4432E-02   4.6420E+01  0.000E+00  0.000E+00  0.000E+00  1.02768E+03  1.770E+00  1.200E+01  2.400E-02  2.004E-01
   1   14    9     7     1    1.5000E+02  1.3329E+00   1.4867E+02  0.000E+00  0.000E+00  0.000E+00  1.03987E+03  2.288E+00  5.529E+01  5.593E-01  7.944E-01
   1   13    8     7     2    1.4867E+02  1.8318E+00   1.4684E+02  0.000E+00  0.000E+00  0.000E+00  1.03478E+03  2.279E+00  5.526E+01  6.148E-01  9.932E-01
   1   13    7     7     3    1.4684E+02  1.4586E+00   1.4538E+02  0.000E+00  0.000E+00  0.000E+00  1.02969E+03  2.271E+00  5.522E+01  5.585E-01  8.706E-01
   1   13    6     8     1    1.9180E+02  9.9217E-01   1.9080E+02  0.000E+00  0.000E+00  0.000E+00  1.02496E+03  3.086E+00  4.474E+01  4.560E-01  7.253E-01
   1   13    5     8     2    1.9080E+02  2.1205E-01   1.9059E+02  0.000E+00  0.000E+00  0.000E+00  1.01871E+03  3.082E+00  4.469E+01  4.554E-01  1.552E-01
   1   13    4     8     3    1.9059E+02 -2.4459E+00   1.9304E+02  0.000E+00  0.000E+00  0.000E+00  1.01246E+03  3.089E+00  4.479E+01  4.564E+00 -1.786E-01
   1   13    3     8     4    1.9304E+02 -3.5763E+00   1.9661E+02  0.000E+00  0.000E+00  0.000E+00  1.00623E+03  3.107E+00  4.505E+01  4.591E+00 -2.597E-01
   1   13    2     8     5    1.9661E+02 -2.7394E+00   1.9935E+02  0.000E+00  0.000E+00  0.000E+00  1.00000E+03  3.126E+00  4.532E+01  4.619E+00 -1.977E-01
   1   13    1     8     6    1.9935E+02 -2.1017E+00   2.0146E+02  0.000E+00  0.000E+00  0.000E+00  9.95015E+02  3.140E+00  4.553E+01  2.784E+00 -2.516E-01





UNSATURATED ZONE PACKAGE VOLUMETRIC BUDGET FOR  TIME STEP    30 STRESS PERIOD   20
  ------------------------------------------------------------------------------



     CUMULATIVE VOLUMES      L**3       RATES FOR THIS TIME STEP      L**3/T
     ------------------                 ------------------------

           IN:                                      IN:
           ---                                      ---
        INFILTRATION =   836461564.0640          INFILTRATION =          88.1754

          OUT:                                     OUT:
          ----                                     ----
              UZF ET =   692351279.0079                UZF ET =          60.7922
        UZF RECHARGE =    72022227.3421          UZF RECHARGE =       0.0000E+00

            IN - OUT =    72088057.7140              IN - OUT =          27.3832

          STORAGE:                                 STORAGE:
          --------                                 --------
      STORAGE CHANGE =    72088043.4520        STORAGE CHANGE =          27.3832

 PERCENT DISCREPANCY IS DIFFERENCE BETWEEN IN-OUT MINUS CHANGE IN STORAGE
 DIVIDED BY THE AVERAGE OF IN AND OUT TIMES 100

 PERCENT DISCREPANCY =           0.00     PERCENT DISCREPANCY =           0.00






1
  VOLUMETRIC BUDGET FOR AGRICULTURAL FIELDS AT  END OF TIME STEP   30, STRESS PERIOD  20
  ------------------------------------------------------------------------------

     CUMULATIVE VOLUMES      L**3       RATES FOR THIS TIME STEP      L**3/T
     ------------------                 ------------------------

           IN:                                      IN:
           ---                                      ---
               AG WELLS  =   794037888.0000                 AG WELLS  =          87.3279
      DIVERSION SEGMENTS =           0.0000        DIVERSION SEGMENTS =           0.0000
           GW IRRIGATION =           0.0000             GW IRRIGATION =           0.0000
           SW IRRIGATION =           0.0000             SW IRRIGATION =           0.0000
        SYSTEM LOSSES GW =           0.0000          SYSTEM LOSSES GW =           0.0000
        SYSTEM LOSSES SW =           0.0000          SYSTEM LOSSES SW =           0.0000

                TOTAL IN =   794037888.0000                  TOTAL IN =          87.3279

          OUT:                                     OUT:
          ----                                     ----
               AG WELLS  =           0.0000                 AG WELLS  =           0.0000
      DIVERSION SEGMENTS =           0.0000        DIVERSION SEGMENTS =           0.0000
           GW IRRIGATION =   794037888.0000             GW IRRIGATION =          87.3279
           SW IRRIGATION =           0.0000             SW IRRIGATION =           0.0000
        SYSTEM LOSSES GW =           0.0000          SYSTEM LOSSES GW =           0.0000
        SYSTEM LOSSES SW =           0.0000          SYSTEM LOSSES SW =           0.0000

               TOTAL OUT =   794037888.0000                 TOTAL OUT =          87.3279

                IN - OUT =           0.0000                  IN - OUT =           0.0000

     PERCENT DISCREPANCY =           0.00         PERCENT DISCREPANCY =           0.00



1
  VOLUMETRIC BUDGET FOR ENTIRE MODEL AT END OF TIME STEP   30, STRESS PERIOD  20
  ------------------------------------------------------------------------------

     CUMULATIVE VOLUMES      L**3       RATES FOR THIS TIME STEP      L**3/T
     ------------------                 ------------------------

           IN:                                      IN:
           ---                                      ---
             STORAGE     =   937791872.0000               STORAGE     =          86.2646
       CONSTANT HEAD     =           0.0000         CONSTANT HEAD     =           0.0000
     HEAD DEP BOUNDS     =    14287214.0000       HEAD DEP BOUNDS     =           0.2856
      STREAM LEAKAGE     =   629925632.0000        STREAM LEAKAGE     =          12.4427
        UZF RECHARGE     =    72022192.0000          UZF RECHARGE     =           0.0000
               GW ET     =           0.0000                 GW ET     =           0.0000
     SURFACE LEAKAGE     =           0.0000       SURFACE LEAKAGE     =           0.0000
           AG WELLS      =           0.0000             AG WELLS      =           0.0000

                TOTAL IN =  1654026880.0000                  TOTAL IN =          98.9929

          OUT:                                     OUT:
          ----                                     ----
             STORAGE     =   312650016.0000               STORAGE     =           0.2833
       CONSTANT HEAD     =           0.0000         CONSTANT HEAD     =           0.0000
     HEAD DEP BOUNDS     =    14756207.0000       HEAD DEP BOUNDS     =           0.2953
      STREAM LEAKAGE     =   515093056.0000        STREAM LEAKAGE     =          10.8633
        UZF RECHARGE     =           0.0000          UZF RECHARGE     =           0.0000
               GW ET     =    17477818.0000                 GW ET     =           0.2205
     SURFACE LEAKAGE     =           0.0000       SURFACE LEAKAGE     =           0.0000
           AG WELLS      =   794037888.0000             AG WELLS      =          87.3279

               TOTAL OUT =  1654014976.0000                 TOTAL OUT =          98.9902

                IN - OUT =       11904.0000                  IN - OUT =       2.6550E-03

     PERCENT DISCREPANCY =           0.00         PERCENT DISCREPANCY =           0.00






         TIME SUMMARY AT END OF TIME STEP   30 IN STRESS PERIOD   20
                    SECONDS     MINUTES      HOURS       DAYS        YEARS
                    -----------------------------------------------------------
   TIME STEP LENGTH  87667.      1461.1      24.352      1.0147     2.77799E-03
 STRESS PERIOD TIME 2.63000E+06  43833.      730.56      30.440     8.33397E-02
         TOTAL TIME 5.00565E+07 8.34276E+05  13905.      579.36      1.5862    
1
1
                            STRESS PERIOD NO.   21, LENGTH =   2630000.    
                            -----------------------------------------------

                              NUMBER OF TIME STEPS =    30

                               MULTIPLIER FOR DELT =     1.000

                            INITIAL TIME STEP SIZE =   87666.66    

 REUSING NON-PARAMETER GHB CELLS FROM LAST STRESS PERIOD

      2 GHB CELLS

 REUSING STREAM SEGMENT DATA FROM LAST STRESS PERIOD



            AREAL INFILTRATION RATE
 READING ON UNIT   19 WITH FORMAT: (FREE)              

            1           2           3           4           5           6           7           8           9          10
 ........................................................................................................................
   1   1.0000E-10  2.0000E-10   0.000       0.000       0.000       0.000       0.000       0.000       0.000       0.000    
   2   2.0000E-10  1.0000E-10  2.0000E-10   0.000       0.000      8.0000E-10  8.0000E-10  5.0000E-10   0.000       0.000    
   3    0.000      5.0000E-10  1.0000E-10  1.0000E-10  8.0000E-10  8.0000E-10  5.0000E-10  5.0000E-10   0.000       0.000    
   4   8.0000E-10  5.0000E-10  1.0000E-10  1.0000E-10  1.0000E-10  1.0000E-10  1.0000E-10  1.0000E-10  2.0000E-10   0.000    
   5   8.0000E-10  5.0000E-10  1.0000E-10  1.0000E-10  1.0000E-10  1.0000E-10  1.0000E-10  1.0000E-10  1.0000E-10  1.0000E-10
   6   8.0000E-10  5.0000E-10  5.0000E-10  2.0000E-10  2.0000E-10  1.0000E-10  1.0000E-10  1.0000E-10  1.0000E-10  5.0000E-10
   7   8.0000E-10  5.0000E-10  5.0000E-10  2.0000E-10  2.0000E-10  1.0000E-10  1.0000E-10  2.0000E-10  2.0000E-10   0.000    
   8    0.000      5.0000E-10  5.0000E-10  2.0000E-10  2.0000E-10  1.0000E-10  1.0000E-10  2.0000E-10  5.0000E-10   0.000    
   9    0.000      5.0000E-10  5.0000E-10  2.0000E-10  2.0000E-10  1.0000E-10  1.0000E-10  2.0000E-10  5.0000E-10   0.000    
  10    0.000      5.0000E-10  5.0000E-10  2.0000E-10  2.0000E-10  1.0000E-10  1.0000E-10  2.0000E-10  5.0000E-10  8.0000E-10
  11    0.000      1.0000E-10  1.0000E-10  1.0000E-10  1.0000E-10  1.0000E-10  1.0000E-10  2.0000E-10  5.0000E-10   0.000    
  12   1.0000E-10  1.0000E-10  1.0000E-10  1.0000E-10  1.0000E-10  1.0000E-10  1.0000E-10  1.0000E-10  2.0000E-10   0.000    
  13   1.0000E-10  1.0000E-10  2.0000E-10  2.0000E-10  2.0000E-10  2.0000E-10  2.0000E-10  1.0000E-10  1.0000E-10   0.000    
  14    0.000      2.0000E-10  5.0000E-10  5.0000E-10  5.0000E-10  5.0000E-10  5.0000E-10  2.0000E-10  1.0000E-10   0.000    
  15    0.000       0.000      8.0000E-10  8.0000E-10  8.0000E-10  8.0000E-10   0.000       0.000       0.000       0.000    

                  ET RATE =  3.250000E-07

 USING ET EXTINCTION DEPTH FROM PREVIOUS STRESS PERIOD. CURRENT PERIOD IS:      21

 USING EXTINCTION WATER CONTENT FROM PREVIOUS STRESS PERIOD. CURRENT PERIOD IS:      21

 USING AIR ENTRY PRESSURE FROM PREVIOUS STRESS PERIOD. CURRENT PERIOD IS:      21

 USING ROOT PRESSURE HEAD FROM PREVIOUS STRESS PERIOD. CURRENT PERIOD IS:      21

 USING ROOT ACTIVITY FROM PREVIOUS STRESS PERIOD. CURRENT PERIOD IS:      21

 PROCESSING AG STRESS PERIOD DATA

 READING AG STRESS PERIOD DATA

 READING IRRIGATION WELL

 END PROCESSING AG STRESS PERIOD DATA OPTIONS
 
 SOLVING FOR HEAD 
                                                   Max.-Head-Change                         Max.-Flux-Residual
  Residual-Control   Outer-Iter.   Inner-Iter.     Column Row Layer    Maximum-Head-Change  Column Row Layer    Maximum-Flux-Residual          L2-NORM 
          0                 1           2             4    7     1      -0.6821817678E-01       4    7    1        -0.3615952801E+01      0.9746327397E+01
          0                 2           2             4    7     1       0.6635622247E-02       4    7    1         0.3615851211E+00      0.9745405952E+00
          0                 3           2             4    7     1      -0.4518627040E-03       4    7    1        -0.2531106552E-01      0.6821071009E-01
          0                 4           1             4    7     1       0.1798003249E-04       4    7    1         0.1035223574E-02      0.2789416390E-02

    ------------------------------------------------
       NWT REQUIRED            4 OUTER ITERATIONS 
       AND A TOTAL OF          7 INNER ITERATIONS.
    ------------------------------------------------

 NO OUTPUT CONTROL FOR STRESS PERIOD   21   TIME STEP    1
 
 SOLVING FOR HEAD 
                                                   Max.-Head-Change                         Max.-Flux-Residual
  Residual-Control   Outer-Iter.   Inner-Iter.     Column Row Layer    Maximum-Head-Change  Column Row Layer    Maximum-Flux-Residual          L2-NORM 
          0                 1           2             4    7     1      -0.6691501914E-01       4    7    1        -0.3544422868E+01      0.9618790916E+01
          0                 2           2             4    7     1       0.6486600091E-02       4    7    1         0.3529336534E+00      0.9615823870E+00
          0                 3           2             4    7     1      -0.4417145685E-03       4    7    1        -0.2470544349E-01      0.6730502581E-01
          0                 4           1             4    7     1       0.1757623038E-04       4    7    1         0.1010453691E-02      0.2752397221E-02

    ------------------------------------------------
       NWT REQUIRED            4 OUTER ITERATIONS 
       AND A TOTAL OF          7 INNER ITERATIONS.
    ------------------------------------------------

 NO OUTPUT CONTROL FOR STRESS PERIOD   21   TIME STEP    2
 
 SOLVING FOR HEAD 
                                                   Max.-Head-Change                         Max.-Flux-Residual
  Residual-Control   Outer-Iter.   Inner-Iter.     Column Row Layer    Maximum-Head-Change  Column Row Layer    Maximum-Flux-Residual          L2-NORM 
          0                 1           2             4    7     1      -0.6574389550E-01       4    7    1        -0.3477903058E+01      0.9502841627E+01
          0                 2           2             4    7     1       0.6394975020E-02       4    7    1         0.3477824501E+00      0.9502741631E+00
          0                 3           2             4    7     1      -0.4354752007E-03       4    7    1        -0.2434485634E-01      0.6651456430E-01
          0                 4           1             4    7     1       0.1732796024E-04       4    7    1         0.9957056582E-03      0.2720210952E-02

    ------------------------------------------------
       NWT REQUIRED            4 OUTER ITERATIONS 
       AND A TOTAL OF          7 INNER ITERATIONS.
    ------------------------------------------------

 NO OUTPUT CONTROL FOR STRESS PERIOD   21   TIME STEP    3
 
 SOLVING FOR HEAD 
                                                   Max.-Head-Change                         Max.-Flux-Residual
  Residual-Control   Outer-Iter.   Inner-Iter.     Column Row Layer    Maximum-Head-Change  Column Row Layer    Maximum-Flux-Residual          L2-NORM 
          0                 1           2             4    7     1      -0.6461119412E-01       4    7    1        -0.3415861588E+01      0.9396980629E+01
          0                 2           2             4    7     1       0.6284798874E-02       4    7    1         0.3415786605E+00      0.9396469135E+00
          0                 3           2             4    7     1      -0.4279725645E-03       4    7    1        -0.2391058751E-01      0.6577146088E-01
          0                 4           1             4    7     1       0.1702942355E-04       4    7    1         0.9779440579E-03      0.2689789806E-02

    ------------------------------------------------
       NWT REQUIRED            4 OUTER ITERATIONS 
       AND A TOTAL OF          7 INNER ITERATIONS.
    ------------------------------------------------

 NO OUTPUT CONTROL FOR STRESS PERIOD   21   TIME STEP    4
 
 SOLVING FOR HEAD 
                                                   Max.-Head-Change                         Max.-Flux-Residual
  Residual-Control   Outer-Iter.   Inner-Iter.     Column Row Layer    Maximum-Head-Change  Column Row Layer    Maximum-Flux-Residual          L2-NORM 
          0                 1           2             4    7     1      -0.6353661661E-01       4    7    1        -0.3357007613E+01      0.9299628137E+01
          0                 2           2             4    7     1       0.6180276597E-02       4    7    1         0.3356936037E+00      0.9299196041E+00
          0                 3           2             4    7     1      -0.4208549380E-03       4    7    1        -0.2349863014E-01      0.6509127843E-01
          0                 4           1             4    7     1       0.1674620678E-04       4    7    1         0.9610949987E-03      0.2662040468E-02

    ------------------------------------------------
       NWT REQUIRED            4 OUTER ITERATIONS 
       AND A TOTAL OF          7 INNER ITERATIONS.
    ------------------------------------------------

 NO OUTPUT CONTROL FOR STRESS PERIOD   21   TIME STEP    5
 
 SOLVING FOR HEAD 
                                                   Max.-Head-Change                         Max.-Flux-Residual
  Residual-Control   Outer-Iter.   Inner-Iter.     Column Row Layer    Maximum-Head-Change  Column Row Layer    Maximum-Flux-Residual          L2-NORM 
          0                 1           2             4    7     1      -0.6251721893E-01       4    7    1        -0.3301181832E+01      0.9210095322E+01
          0                 2           2             4    7     1       0.6081121590E-02       4    7    1         0.3301113500E+00      0.9209726682E+00
          0                 3           2             4    7     1      -0.4141028047E-03       4    7    1        -0.2310786915E-01      0.6446549764E-01
          0                 4           1             4    7     1       0.1647753315E-04       4    7    1         0.9451128576E-03      0.2636480996E-02

    ------------------------------------------------
       NWT REQUIRED            4 OUTER ITERATIONS 
       AND A TOTAL OF          7 INNER ITERATIONS.
    ------------------------------------------------

 NO OUTPUT CONTROL FOR STRESS PERIOD   21   TIME STEP    6
 
 SOLVING FOR HEAD 
                                                   Max.-Head-Change                         Max.-Flux-Residual
  Residual-Control   Outer-Iter.   Inner-Iter.     Column Row Layer    Maximum-Head-Change  Column Row Layer    Maximum-Flux-Residual          L2-NORM 
          0                 1           2             4    7     1      -0.6154978631E-01       4    7    1        -0.3248209914E+01      0.9127516241E+01
          0                 2           2             4    7     1       0.5987021151E-02       4    7    1         0.3248144671E+00      0.9127198742E+00
          0                 3           2             4    7     1      -0.4076948708E-03       4    7    1        -0.2273708424E-01      0.6388823312E-01
          0                 4           1             4    7     1       0.1622255591E-04       4    7    1         0.9299477542E-03      0.2612890805E-02

    ------------------------------------------------
       NWT REQUIRED            4 OUTER ITERATIONS 
       AND A TOTAL OF          7 INNER ITERATIONS.
    ------------------------------------------------

 NO OUTPUT CONTROL FOR STRESS PERIOD   21   TIME STEP    7
 
 SOLVING FOR HEAD 
                                                   Max.-Head-Change                         Max.-Flux-Residual
  Residual-Control   Outer-Iter.   Inner-Iter.     Column Row Layer    Maximum-Head-Change  Column Row Layer    Maximum-Flux-Residual          L2-NORM 
          0                 1           2             4    7     1      -0.6063165169E-01       4    7    1        -0.3197946864E+01      0.9051149200E+01
          0                 2           2             4    7     1       0.5897715854E-02       4    7    1         0.3197884556E+00      0.9050873661E+00
          0                 3           2             4    7     1      -0.4016134706E-03       4    7    1        -0.2238526052E-01      0.6335426840E-01
          0                 4           1             4    7     1       0.1598057174E-04       4    7    1         0.9155581624E-03      0.2591058907E-02

    ------------------------------------------------
       NWT REQUIRED            4 OUTER ITERATIONS 
       AND A TOTAL OF          7 INNER ITERATIONS.
    ------------------------------------------------

 NO OUTPUT CONTROL FOR STRESS PERIOD   21   TIME STEP    8
 
 SOLVING FOR HEAD 
                                                   Max.-Head-Change                         Max.-Flux-Residual
  Residual-Control   Outer-Iter.   Inner-Iter.     Column Row Layer    Maximum-Head-Change  Column Row Layer    Maximum-Flux-Residual          L2-NORM 
          0                 1           2             4    7     1      -0.5976000167E-01       4    7    1        -0.3150239932E+01      0.8980327738E+01
          0                 2           2             4    7     1       0.5812932037E-02       4    7    1         0.3150180413E+00      0.8980087163E+00
          0                 3           2             4    7     1      -0.3958399684E-03       4    7    1        -0.2205132874E-01      0.6285904341E-01
          0                 4           1             4    7     1       0.1575083887E-04       4    7    1         0.9019003533E-03      0.2570810140E-02

    ------------------------------------------------
       NWT REQUIRED            4 OUTER ITERATIONS 
       AND A TOTAL OF          7 INNER ITERATIONS.
    ------------------------------------------------

 NO OUTPUT CONTROL FOR STRESS PERIOD   21   TIME STEP    9
 
 SOLVING FOR HEAD 
                                                   Max.-Head-Change                         Max.-Flux-Residual
  Residual-Control   Outer-Iter.   Inner-Iter.     Column Row Layer    Maximum-Head-Change  Column Row Layer    Maximum-Flux-Residual          L2-NORM 
          0                 1           2             4    7     1      -0.5893229295E-01       4    7    1        -0.3104950471E+01      0.8914465309E+01
          0                 2           2             4    7     1       0.5732422316E-02       4    7    1         0.3104893600E+00      0.8914235023E+00
          0                 3           2             4    7     1      -0.3903575179E-03       4    7    1        -0.2173431841E-01      0.6239842181E-01
          0                 4           1             4    7     1       0.1553268715E-04       4    7    1         0.8889346136E-03      0.2551997013E-02

    ------------------------------------------------
       NWT REQUIRED            4 OUTER ITERATIONS 
       AND A TOTAL OF          7 INNER ITERATIONS.
    ------------------------------------------------

 NO OUTPUT CONTROL FOR STRESS PERIOD   21   TIME STEP   10
 
 SOLVING FOR HEAD 
                                                   Max.-Head-Change                         Max.-Flux-Residual
  Residual-Control   Outer-Iter.   Inner-Iter.     Column Row Layer    Maximum-Head-Change  Column Row Layer    Maximum-Flux-Residual          L2-NORM 
          0                 1           2             4    7     1      -0.5814610589E-01       4    7    1        -0.3061946608E+01      0.8853059388E+01
          0                 2           2             4    7     1       0.5655951329E-02       4    7    1         0.3061892250E+00      0.8852869766E+00
          0                 3           2             4    7     1      -0.3851500917E-03       4    7    1        -0.2143330643E-01      0.6196893179E-01
          0                 4           1             4    7     1       0.1532547877E-04       4    7    1         0.8766232058E-03      0.2534461167E-02

    ------------------------------------------------
       NWT REQUIRED            4 OUTER ITERATIONS 
       AND A TOTAL OF          7 INNER ITERATIONS.
    ------------------------------------------------

 NO OUTPUT CONTROL FOR STRESS PERIOD   21   TIME STEP   11
 
 SOLVING FOR HEAD 
                                                   Max.-Head-Change                         Max.-Flux-Residual
  Residual-Control   Outer-Iter.   Inner-Iter.     Column Row Layer    Maximum-Head-Change  Column Row Layer    Maximum-Flux-Residual          L2-NORM 
          0                 1           2             4    7     1      -0.5739900970E-01       4    7    1        -0.3021095658E+01      0.8795636859E+01
          0                 2           2             4    7     1       0.5583282636E-02       4    7    1         0.3021043682E+00      0.8795466293E+00
          0                 3           2             4    7     1      -0.3802015902E-03       4    7    1        -0.2114736408E-01      0.6156724598E-01
          0                 4           1             4    7     1       0.1512857385E-04       4    7    1         0.8649281685E-03      0.2518035786E-02

    ------------------------------------------------
       NWT REQUIRED            4 OUTER ITERATIONS 
       AND A TOTAL OF          7 INNER ITERATIONS.
    ------------------------------------------------

 NO OUTPUT CONTROL FOR STRESS PERIOD   21   TIME STEP   12
 
 SOLVING FOR HEAD 
                                                   Max.-Head-Change                         Max.-Flux-Residual
  Residual-Control   Outer-Iter.   Inner-Iter.     Column Row Layer    Maximum-Head-Change  Column Row Layer    Maximum-Flux-Residual          L2-NORM 
          0                 1           2             4    7     1      -0.5668882852E-01       4    7    1        -0.2982278808E+01      0.8741801114E+01
          0                 2           2             4    7     1       0.5514204593E-02       4    7    1         0.2982229090E+00      0.8741646693E+00
          0                 3           2             4    7     1      -0.3754976002E-03       4    7    1        -0.2087565969E-01      0.6119062721E-01
          0                 4           1             4    7     1       0.1494139755E-04       4    7    1         0.8538154507E-03      0.2502676981E-02

    ------------------------------------------------
       NWT REQUIRED            4 OUTER ITERATIONS 
       AND A TOTAL OF          7 INNER ITERATIONS.
    ------------------------------------------------

 NO OUTPUT CONTROL FOR STRESS PERIOD   21   TIME STEP   13
 
 SOLVING FOR HEAD 
                                                   Max.-Head-Change                         Max.-Flux-Residual
  Residual-Control   Outer-Iter.   Inner-Iter.     Column Row Layer    Maximum-Head-Change  Column Row Layer    Maximum-Flux-Residual          L2-NORM 
          0                 1           2             4    7     1      -0.5601337186E-01       4    7    1        -0.2945376015E+01      0.8691183756E+01
          0                 2           2             4    7     1       0.5448504129E-02       4    7    1         0.2945328435E+00      0.8691043699E+00
          0                 3           2             4    7     1      -0.3710236123E-03       4    7    1        -0.2061735297E-01      0.6083650494E-01
          0                 4           1             4    7     1       0.1476337344E-04       4    7    1         0.8432507025E-03      0.2488175075E-02

    ------------------------------------------------
       NWT REQUIRED            4 OUTER ITERATIONS 
       AND A TOTAL OF          7 INNER ITERATIONS.
    ------------------------------------------------

 NO OUTPUT CONTROL FOR STRESS PERIOD   21   TIME STEP   14
 
 SOLVING FOR HEAD 
                                                   Max.-Head-Change                         Max.-Flux-Residual
  Residual-Control   Outer-Iter.   Inner-Iter.     Column Row Layer    Maximum-Head-Change  Column Row Layer    Maximum-Flux-Residual          L2-NORM 
          0                 1           2             4    7     1      -0.5537069165E-01       4    7    1        -0.2910280923E+01      0.8643462633E+01
          0                 2           2             4    7     1       0.5385991759E-02       4    7    1         0.2910235367E+00      0.8643335260E+00
          0                 3           2             4    7     1      -0.3667667232E-03       4    7    1        -0.2037169948E-01      0.6050268924E-01
          0                 4           1             4    7     1       0.1459398770E-04       4    7    1         0.8332034536E-03      0.2474510652E-02

    ------------------------------------------------
       NWT REQUIRED            4 OUTER ITERATIONS 
       AND A TOTAL OF          7 INNER ITERATIONS.
    ------------------------------------------------

 NO OUTPUT CONTROL FOR STRESS PERIOD   21   TIME STEP   15
 
 SOLVING FOR HEAD 
                                                   Max.-Head-Change                         Max.-Flux-Residual
  Residual-Control   Outer-Iter.   Inner-Iter.     Column Row Layer    Maximum-Head-Change  Column Row Layer    Maximum-Flux-Residual          L2-NORM 
          0                 1           2             4    7     1      -0.5475895017E-01       4    7    1        -0.2876892524E+01      0.8598362304E+01
          0                 2           2             4    7     1       0.5326488728E-02       4    7    1         0.2876848881E+00      0.8598246041E+00
          0                 3           2             4    7     1      -0.3627147606E-03       4    7    1        -0.2013799215E-01      0.6018711095E-01
          0                 4           1             4    7     1       0.1443275668E-04       4    7    1         0.8236448302E-03      0.2461611290E-02

    ------------------------------------------------
       NWT REQUIRED            4 OUTER ITERATIONS 
       AND A TOTAL OF          7 INNER ITERATIONS.
    ------------------------------------------------

 NO OUTPUT CONTROL FOR STRESS PERIOD   21   TIME STEP   16
 
 SOLVING FOR HEAD 
                                                   Max.-Head-Change                         Max.-Flux-Residual
  Residual-Control   Outer-Iter.   Inner-Iter.     Column Row Layer    Maximum-Head-Change  Column Row Layer    Maximum-Flux-Residual          L2-NORM 
          0                 1           2             4    7     1      -0.5417627637E-01       4    7    1        -0.2845108309E+01      0.8555625273E+01
          0                 2           2             4    7     1       0.5269813042E-02       4    7    1         0.2845066474E+00      0.8555518951E+00
          0                 3           2             4    7     1      -0.3588553314E-03       4    7    1        -0.1991551350E-01      0.5988811216E-01
          0                 4           1             4    7     1       0.1427918670E-04       4    7    1         0.8145454472E-03      0.2449419181E-02

    ------------------------------------------------
       NWT REQUIRED            4 OUTER ITERATIONS 
       AND A TOTAL OF          7 INNER ITERATIONS.
    ------------------------------------------------

 NO OUTPUT CONTROL FOR STRESS PERIOD   21   TIME STEP   17
 
 SOLVING FOR HEAD 
                                                   Max.-Head-Change                         Max.-Flux-Residual
  Residual-Control   Outer-Iter.   Inner-Iter.     Column Row Layer    Maximum-Head-Change  Column Row Layer    Maximum-Flux-Residual          L2-NORM 
          0                 1           2             4    7     1      -0.5362090035E-01       4    7    1        -0.2814831263E+01      0.8515023595E+01
          0                 2           2             4    7     1       0.5215792546E-02       4    7    1         0.2814791139E+00      0.8514925583E+00
          0                 3           2             4    7     1      -0.3551767122E-03       4    7    1        -0.1970358445E-01      0.5960402087E-01
          0                 4           1             4    7     1       0.1413281083E-04       4    7    1         0.8058775516E-03      0.2437786146E-02

    ------------------------------------------------
       NWT REQUIRED            4 OUTER ITERATIONS 
       AND A TOTAL OF          7 INNER ITERATIONS.
    ------------------------------------------------

 NO OUTPUT CONTROL FOR STRESS PERIOD   21   TIME STEP   18
 
 SOLVING FOR HEAD 
                                                   Max.-Head-Change                         Max.-Flux-Residual
  Residual-Control   Outer-Iter.   Inner-Iter.     Column Row Layer    Maximum-Head-Change  Column Row Layer    Maximum-Flux-Residual          L2-NORM 
          0                 1           2             4    7     1      -0.5309115072E-01       4    7    1        -0.2785969620E+01      0.8476350911E+01
          0                 2           2             4    7     1       0.5164264665E-02       4    7    1         0.2785931109E+00      0.8476260590E+00
          0                 3           2             4    7     1      -0.3516678320E-03       4    7    1        -0.1950156263E-01      0.5933341527E-01
          0                 4           1             4    7     1       0.1399318971E-04       4    7    1         0.7976148640E-03      0.2426695994E-02

    ------------------------------------------------
       NWT REQUIRED            4 OUTER ITERATIONS 
       AND A TOTAL OF          7 INNER ITERATIONS.
    ------------------------------------------------

 NO OUTPUT CONTROL FOR STRESS PERIOD   21   TIME STEP   19
 
 SOLVING FOR HEAD 
                                                   Max.-Head-Change                         Max.-Flux-Residual
  Residual-Control   Outer-Iter.   Inner-Iter.     Column Row Layer    Maximum-Head-Change  Column Row Layer    Maximum-Flux-Residual          L2-NORM 
          0                 1           2             4    7     1      -0.5258571859E-01       4    7    1        -0.2758451150E+01      0.8439441125E+01
          0                 2           2             4    7     1       0.5115102084E-02       4    7    1         0.2758414165E+00      0.8439357578E+00
          0                 3           2             4    7     1      -0.3483200208E-03       4    7    1        -0.1930894248E-01      0.5907513451E-01
          0                 4           1             4    7     1       0.1385997695E-04       4    7    1         0.7897366827E-03      0.2416145935E-02

    ------------------------------------------------
       NWT REQUIRED            4 OUTER ITERATIONS 
       AND A TOTAL OF          7 INNER ITERATIONS.
    ------------------------------------------------

 NO OUTPUT CONTROL FOR STRESS PERIOD   21   TIME STEP   20
 
 SOLVING FOR HEAD 
                                                   Max.-Head-Change                         Max.-Flux-Residual
  Residual-Control   Outer-Iter.   Inner-Iter.     Column Row Layer    Maximum-Head-Change  Column Row Layer    Maximum-Flux-Residual          L2-NORM 
          0                 1           2             4    7     1      -0.5210297139E-01       4    7    1        -0.2732186335E+01      0.8404124101E+01
          0                 2           2             4    7     1       0.5068146007E-02       4    7    1         0.2732150788E+00      0.8404046397E+00
          0                 3           2             4    7     1      -0.3451224658E-03       4    7    1        -0.1912509740E-01      0.5882801039E-01
          0                 4           1             4    7     1       0.1373274345E-04       4    7    1         0.7822174107E-03      0.2406040718E-02

    ------------------------------------------------
       NWT REQUIRED            4 OUTER ITERATIONS 
       AND A TOTAL OF          7 INNER ITERATIONS.
    ------------------------------------------------

 NO OUTPUT CONTROL FOR STRESS PERIOD   21   TIME STEP   21
 
 SOLVING FOR HEAD 
                                                   Max.-Head-Change                         Max.-Flux-Residual
  Residual-Control   Outer-Iter.   Inner-Iter.     Column Row Layer    Maximum-Head-Change  Column Row Layer    Maximum-Flux-Residual          L2-NORM 
          0                 1           2             4    7     1      -0.5164163524E-01       4    7    1        -0.2707104959E+01      0.8370261048E+01
          0                 2           2             4    7     1       0.5023272527E-02       4    7    1         0.2707070769E+00      0.8370188560E+00
          0                 3           2             4    7     1      -0.3420667293E-03       4    7    1        -0.1894953592E-01      0.5859105476E-01
          0                 4           1             4    7     1       0.1361115305E-04       4    7    1         0.7750369527E-03      0.2396359525E-02

    ------------------------------------------------
       NWT REQUIRED            4 OUTER ITERATIONS 
       AND A TOTAL OF          7 INNER ITERATIONS.
    ------------------------------------------------

 NO OUTPUT CONTROL FOR STRESS PERIOD   21   TIME STEP   22
 
 SOLVING FOR HEAD 
                                                   Max.-Head-Change                         Max.-Flux-Residual
  Residual-Control   Outer-Iter.   Inner-Iter.     Column Row Layer    Maximum-Head-Change  Column Row Layer    Maximum-Flux-Residual          L2-NORM 
          0                 1           2             4    7     1      -0.5120038034E-01       4    7    1        -0.2683133755E+01      0.8337724348E+01
          0                 2           2             4    7     1       0.4980352295E-02       4    7    1         0.2683100845E+00      0.8337656326E+00
          0                 3           2             4    7     1      -0.3391440023E-03       4    7    1        -0.1878174517E-01      0.5836333718E-01
          0                 4           1             4    7     1       0.1349485460E-04       4    7    1         0.7681742791E-03      0.2387037246E-02

    ------------------------------------------------
       NWT REQUIRED            4 OUTER ITERATIONS 
       AND A TOTAL OF          7 INNER ITERATIONS.
    ------------------------------------------------

 NO OUTPUT CONTROL FOR STRESS PERIOD   21   TIME STEP   23
 
 SOLVING FOR HEAD 
                                                   Max.-Head-Change                         Max.-Flux-Residual
  Residual-Control   Outer-Iter.   Inner-Iter.     Column Row Layer    Maximum-Head-Change  Column Row Layer    Maximum-Flux-Residual          L2-NORM 
          0                 1           2             4    7     1      -0.5077808647E-01       4    7    1        -0.2660210987E+01      0.8306402761E+01
          0                 2           2             4    7     1       0.4939276349E-02       4    7    1         0.2660179284E+00      0.8306338607E+00
          0                 3           2             4    7     1      -0.3363468660E-03       4    7    1        -0.1862129302E-01      0.5814413522E-01
          0                 4           1             4    7     1       0.1338355465E-04       4    7    1         0.7616118050E-03      0.2378093366E-02

    ------------------------------------------------
       NWT REQUIRED            4 OUTER ITERATIONS 
       AND A TOTAL OF          7 INNER ITERATIONS.
    ------------------------------------------------

 NO OUTPUT CONTROL FOR STRESS PERIOD   21   TIME STEP   24
 
 SOLVING FOR HEAD 
                                                   Max.-Head-Change                         Max.-Flux-Residual
  Residual-Control   Outer-Iter.   Inner-Iter.     Column Row Layer    Maximum-Head-Change  Column Row Layer    Maximum-Flux-Residual          L2-NORM 
          0                 1           2             4    7     1      -0.5037343465E-01       4    7    1        -0.2638264141E+01      0.8276187937E+01
          0                 2           2             4    7     1       0.4899916396E-02       4    7    1         0.2638233577E+00      0.8276127616E+00
          0                 3           2             4    7     1      -0.3336665832E-03       4    7    1        -0.1846767194E-01      0.5793268686E-01
          0                 4           1             4    7     1       0.1327690366E-04       4    7    1         0.7553286964E-03      0.2369431998E-02

    ------------------------------------------------
       NWT REQUIRED            4 OUTER ITERATIONS 
       AND A TOTAL OF          7 INNER ITERATIONS.
    ------------------------------------------------

 NO OUTPUT CONTROL FOR STRESS PERIOD   21   TIME STEP   25
 
 SOLVING FOR HEAD 
                                                   Max.-Head-Change                         Max.-Flux-Residual
  Residual-Control   Outer-Iter.   Inner-Iter.     Column Row Layer    Maximum-Head-Change  Column Row Layer    Maximum-Flux-Residual          L2-NORM 
          0                 1           2             4    7     1      -0.4998558301E-01       4    7    1        -0.2617246471E+01      0.8246991938E+01
          0                 2           2             4    7     1       0.4862190549E-02       4    7    1         0.2617216979E+00      0.8246934680E+00
          0                 3           2             4    7     1      -0.3310975778E-03       4    7    1        -0.1832055467E-01      0.5772836344E-01
          0                 4           1             4    7     1       0.1317468060E-04       4    7    1         0.7493116050E-03      0.2361084038E-02

    ------------------------------------------------
       NWT REQUIRED            4 OUTER ITERATIONS 
       AND A TOTAL OF          7 INNER ITERATIONS.
    ------------------------------------------------

 NO OUTPUT CONTROL FOR STRESS PERIOD   21   TIME STEP   26
 
 SOLVING FOR HEAD 
                                                   Max.-Head-Change                         Max.-Flux-Residual
  Residual-Control   Outer-Iter.   Inner-Iter.     Column Row Layer    Maximum-Head-Change  Column Row Layer    Maximum-Flux-Residual          L2-NORM 
          0                 1           2             4    7     1      -0.4961321205E-01       4    7    1        -0.2597085473E+01      0.8218733546E+01
          0                 2           2             4    7     1       0.4825970462E-02       4    7    1         0.2597056992E+00      0.8218679101E+00
          0                 3           2             4    7     1      -0.3286311098E-03       4    7    1        -0.1817943373E-01      0.5753059470E-01
          0                 4           1             4    7     1       0.1307653743E-04       4    7    1         0.7435397524E-03      0.2352994863E-02

    ------------------------------------------------
       NWT REQUIRED            4 OUTER ITERATIONS 
       AND A TOTAL OF          7 INNER ITERATIONS.
    ------------------------------------------------

 NO OUTPUT CONTROL FOR STRESS PERIOD   21   TIME STEP   27
 
 SOLVING FOR HEAD 
                                                   Max.-Head-Change                         Max.-Flux-Residual
  Residual-Control   Outer-Iter.   Inner-Iter.     Column Row Layer    Maximum-Head-Change  Column Row Layer    Maximum-Flux-Residual          L2-NORM 
          0                 1           2             4    7     1      -0.4925560799E-01       4    7    1        -0.2577741579E+01      0.8191332638E+01
          0                 2           2             4    7     1       0.4791186709E-02       4    7    1         0.2577714051E+00      0.8191281035E+00
          0                 3           2             4    7     1      -0.3262624520E-03       4    7    1        -0.1804403219E-01      0.5733882021E-01
          0                 4           1             4    7     1       0.1298228683E-04       4    7    1         0.7380018355E-03      0.2345152529E-02

    ------------------------------------------------
       NWT REQUIRED            4 OUTER ITERATIONS 
       AND A TOTAL OF          7 INNER ITERATIONS.
    ------------------------------------------------

 NO OUTPUT CONTROL FOR STRESS PERIOD   21   TIME STEP   28
 
 SOLVING FOR HEAD 
                                                   Max.-Head-Change                         Max.-Flux-Residual
  Residual-Control   Outer-Iter.   Inner-Iter.     Column Row Layer    Maximum-Head-Change  Column Row Layer    Maximum-Flux-Residual          L2-NORM 
          0                 1           2             4    7     1      -0.4891184113E-01       4    7    1        -0.2559163355E+01      0.8164730326E+01
          0                 2           2             4    7     1       0.4757748861E-02       4    7    1         0.2559136725E+00      0.8164681255E+00
          0                 3           2             4    7     1      -0.3239854459E-03       4    7    1        -0.1791399001E-01      0.5715264285E-01
          0                 4           1             4    7     1       0.1289168256E-04       4    7    1         0.7326831037E-03      0.2337528457E-02

    ------------------------------------------------
       NWT REQUIRED            4 OUTER ITERATIONS 
       AND A TOTAL OF          7 INNER ITERATIONS.
    ------------------------------------------------

 NO OUTPUT CONTROL FOR STRESS PERIOD   21   TIME STEP   29
 
 SOLVING FOR HEAD 
                                                   Max.-Head-Change                         Max.-Flux-Residual
  Residual-Control   Outer-Iter.   Inner-Iter.     Column Row Layer    Maximum-Head-Change  Column Row Layer    Maximum-Flux-Residual          L2-NORM 
          0                 1           2             4    7     1      -0.4858090185E-01       4    7    1        -0.2541295387E+01      0.8138858144E+01
          0                 2           2             4    7     1       0.4725558711E-02       4    7    1         0.2541269603E+00      0.8138795069E+00
          0                 3           2             4    7     1      -0.3217934042E-03       4    7    1        -0.1778891930E-01      0.5697146082E-01
          0                 4           1             4    7     1       0.1280445925E-04       4    7    1         0.7275677094E-03      0.2330128754E-02

    ------------------------------------------------
       NWT REQUIRED            4 OUTER ITERATIONS 
       AND A TOTAL OF          7 INNER ITERATIONS.
    ------------------------------------------------

 NO OUTPUT CONTROL FOR STRESS PERIOD   21   TIME STEP   30



 STREAM LISTING     PERIOD     21   STEP       30

 LAYER ROW COL. STREAM  RCH.  FLOW INTO     FLOW TO   FLOW OUT OF   OVRLND.     DIRECT     STREAM       STREAM     STREAM     STREAM   STREAMBED  STREAMBED
                SEG.NO.  NO.  STRM. RCH.    AQUIFER    STRM. RCH.    RUNOFF     PRECIP       ET          HEAD       DEPTH      WIDTH   CONDCTNC.   GRADIENT

   1    1    1     1     1    3.7001E+01  2.9351E-01   3.6707E+01  0.000E+00  0.000E+00  0.000E+00  1.09436E+03  1.308E+00  1.514E+01  6.812E-02  1.436E+00
   1    2    2     1     2    3.6707E+01  4.5449E-01   3.6253E+01  0.000E+00  0.000E+00  0.000E+00  1.08936E+03  1.305E+00  1.508E+01  1.056E-01  1.435E+00
   1    3    3     1     3    3.6253E+01  3.8754E-01   3.5865E+01  0.000E+00  0.000E+00  0.000E+00  1.08372E+03  1.302E+00  1.501E+01  9.008E-02  1.434E+00
   1    3    4     1     4    3.5865E+01  3.5682E-01   3.5508E+01  0.000E+00  0.000E+00  0.000E+00  1.07871E+03  1.299E+00  1.495E+01  8.300E-02  1.433E+00
   1    4    5     2     1    3.3508E+01  3.4594E-01   3.3162E+01  0.000E+00  0.000E+00  0.000E+00  1.07337E+03  1.435E+00  1.200E+01  7.800E-02  1.478E+00
   1    5    6     2     2    3.3162E+01  2.6563E-01   3.2897E+01  0.000E+00  0.000E+00  0.000E+00  1.06794E+03  1.427E+00  1.200E+01  6.000E-02  1.476E+00
   1    6    6     2     3    3.2897E+01  2.6522E-01   3.2631E+01  0.000E+00  0.000E+00  0.000E+00  1.06321E+03  1.420E+00  1.200E+01  6.000E-02  1.473E+00
   1    7    6     2     4    3.2631E+01  2.6480E-01   3.2367E+01  0.000E+00  0.000E+00  0.000E+00  1.05849E+03  1.413E+00  1.200E+01  6.000E-02  1.471E+00
   1    8    6     2     5    3.2367E+01  2.6439E-01   3.2102E+01  0.000E+00  0.000E+00  0.000E+00  1.05377E+03  1.406E+00  1.200E+01  6.000E-02  1.469E+00
   1    3    5     3     1    2.0000E+00  2.8252E-01   1.7175E+00  0.000E+00  0.000E+00  0.000E+00  1.07555E+03  1.909E+00  9.636E+00  7.227E-02  1.955E+00
   1    3    6     3     2    1.7175E+00  2.4905E-01   1.4684E+00  0.000E+00  0.000E+00  0.000E+00  1.07264E+03  1.727E+00  8.909E+00  6.682E-02  1.864E+00
   1    3    7     3     3    1.4684E+00  1.9718E-01   1.2712E+00  0.000E+00  0.000E+00  0.000E+00  1.06987E+03  1.555E+00  8.218E+00  5.547E-02  1.777E+00
   1    4    8     3     4    1.2712E+00  2.2567E-01   1.0456E+00  0.000E+00  0.000E+00  0.000E+00  1.06682E+03  1.364E+00  7.455E+00  6.709E-02  1.682E+00
   1    5    8     3     5    1.0456E+00  1.5790E-01   8.8768E-01  0.000E+00  0.000E+00  0.000E+00  1.06362E+03  1.164E+00  6.655E+00  4.991E-02  1.582E+00
   1    6    8     3     6    8.8768E-01  5.5980E-02   8.3170E-01  0.000E+00  0.000E+00  0.000E+00  1.06158E+03  1.036E+00  6.145E+00  1.844E-02  1.518E+00
   1    5   10     4     1    1.0000E+01  9.0919E-02   9.9091E+00  0.000E+00  0.000E+00  0.000E+00  1.07836E+03  6.368E-01  1.000E+01  2.500E-02  1.212E+00
   1    5    9     4     2    9.9091E+00  1.8158E-01   9.7275E+00  0.000E+00  0.000E+00  0.000E+00  1.07154E+03  6.315E-01  1.000E+01  5.000E-02  1.211E+00
   1    6    8     4     3    9.7275E+00  1.2689E-01   9.6006E+00  0.000E+00  0.000E+00  0.000E+00  1.06381E+03  6.256E-01  1.000E+01  3.500E-02  1.209E+00
   1    6    8     5     1    1.0432E+01  2.2686E-01   1.0205E+01  0.000E+00  0.000E+00  0.000E+00  1.05868E+03  6.790E-01  1.542E+01  6.166E-02  1.226E+00
   1    7    7     5     2    1.0205E+01  2.7894E-01   9.9265E+00  0.000E+00  0.000E+00  0.000E+00  1.05417E+03  6.732E-01  1.519E+01  7.594E-02  1.224E+00
   1    8    7     5     3    9.9265E+00  1.9221E-01   9.7343E+00  0.000E+00  0.000E+00  0.000E+00  1.04992E+03  6.676E-01  1.497E+01  5.241E-02  1.223E+00
   1    8    6     5     4    9.7343E+00  1.3577E-01   9.5985E+00  0.000E+00  0.000E+00  0.000E+00  1.04691E+03  6.637E-01  1.482E+01  3.706E-02  1.221E+00
   1    9    6     6     1    4.1701E+01  2.7939E-01   4.1421E+01  0.000E+00  0.000E+00  0.000E+00  1.04438E+03  1.656E+00  1.200E+01  6.000E-02  1.552E+00
   1   10    7     6     2    4.1421E+01  2.7899E-01   4.1142E+01  0.000E+00  0.000E+00  0.000E+00  1.03983E+03  1.650E+00  1.200E+01  6.000E-02  1.550E+00
   1   11    7     6     3    4.1142E+01  2.7859E-01   4.0864E+01  0.000E+00  0.000E+00  0.000E+00  1.03528E+03  1.643E+00  1.200E+01  6.000E-02  1.548E+00
   1   12    7     6     4    4.0864E+01  2.7818E-01   4.0586E+01  0.000E+00  0.000E+00  0.000E+00  1.03073E+03  1.636E+00  1.200E+01  6.000E-02  1.545E+00
   1   13    7     6     5    4.0586E+01  1.1536E-02   4.0574E+01  0.000E+00  0.000E+00  0.000E+00  1.02754E+03  1.633E+00  1.200E+01  2.400E-02  1.602E-01
   1   14    9     7     1    1.5000E+02  1.3338E+00   1.4867E+02  0.000E+00  0.000E+00  0.000E+00  1.03987E+03  2.288E+00  5.529E+01  5.593E-01  7.949E-01
   1   13    8     7     2    1.4867E+02  1.8356E+00   1.4683E+02  0.000E+00  0.000E+00  0.000E+00  1.03478E+03  2.279E+00  5.526E+01  6.148E-01  9.953E-01
   1   13    7     7     3    1.4683E+02  1.4679E+00   1.4536E+02  0.000E+00  0.000E+00  0.000E+00  1.02969E+03  2.270E+00  5.522E+01  5.585E-01  8.762E-01
   1   13    6     8     1    1.8594E+02  9.8250E-01   1.8495E+02  0.000E+00  0.000E+00  0.000E+00  1.02493E+03  3.050E+00  4.423E+01  4.507E-01  7.267E-01
   1   13    5     8     2    1.8495E+02  2.1123E-01   1.8474E+02  0.000E+00  0.000E+00  0.000E+00  1.01867E+03  3.046E+00  4.417E+01  4.501E-01  1.564E-01
   1   13    4     8     3    1.8474E+02 -2.3505E+00   1.8709E+02  0.000E+00  0.000E+00  0.000E+00  1.01243E+03  3.053E+00  4.427E+01  4.511E+00 -1.737E-01
   1   13    3     8     4    1.8709E+02 -3.6181E+00   1.9071E+02  0.000E+00  0.000E+00  0.000E+00  1.00620E+03  3.071E+00  4.453E+01  4.538E+00 -2.658E-01
   1   13    2     8     5    1.9071E+02 -2.5883E+00   1.9330E+02  0.000E+00  0.000E+00  0.000E+00  9.99965E+02  3.090E+00  4.481E+01  4.566E+00 -1.890E-01
   1   13    1     8     6    1.9330E+02 -2.0212E+00   1.9532E+02  0.000E+00  0.000E+00  0.000E+00  9.94979E+02  3.104E+00  4.501E+01  2.752E+00 -2.448E-01





UNSATURATED ZONE PACKAGE VOLUMETRIC BUDGET FOR  TIME STEP    30 STRESS PERIOD   21
  ------------------------------------------------------------------------------



     CUMULATIVE VOLUMES      L**3       RATES FOR THIS TIME STEP      L**3/T
     ------------------                 ------------------------

           IN:                                      IN:
           ---                                      ---
        INFILTRATION =   966824081.4404          INFILTRATION =          49.5675

          OUT:                                     OUT:
          ----                                     ----
              UZF ET =   822713796.3843                UZF ET =          49.5675
        UZF RECHARGE =    72022227.3421          UZF RECHARGE =       0.0000E+00

            IN - OUT =    72088057.7140              IN - OUT =       0.0000E+00

          STORAGE:                                 STORAGE:
          --------                                 --------
      STORAGE CHANGE =    72088043.4520        STORAGE CHANGE =       5.0458E-14

 PERCENT DISCREPANCY IS DIFFERENCE BETWEEN IN-OUT MINUS CHANGE IN STORAGE
 DIVIDED BY THE AVERAGE OF IN AND OUT TIMES 100

 PERCENT DISCREPANCY =           0.00     PERCENT DISCREPANCY =           0.00






1
  VOLUMETRIC BUDGET FOR AGRICULTURAL FIELDS AT  END OF TIME STEP   30, STRESS PERIOD  21
  ------------------------------------------------------------------------------

     CUMULATIVE VOLUMES      L**3       RATES FOR THIS TIME STEP      L**3/T
     ------------------                 ------------------------

           IN:                                      IN:
           ---                                      ---
               AG WELLS  =   922171008.0000                 AG WELLS  =          48.7200
      DIVERSION SEGMENTS =           0.0000        DIVERSION SEGMENTS =           0.0000
           GW IRRIGATION =           0.0000             GW IRRIGATION =           0.0000
           SW IRRIGATION =           0.0000             SW IRRIGATION =           0.0000
        SYSTEM LOSSES GW =           0.0000          SYSTEM LOSSES GW =           0.0000
        SYSTEM LOSSES SW =           0.0000          SYSTEM LOSSES SW =           0.0000

                TOTAL IN =   922171008.0000                  TOTAL IN =          48.7200

          OUT:                                     OUT:
          ----                                     ----
               AG WELLS  =           0.0000                 AG WELLS  =           0.0000
      DIVERSION SEGMENTS =           0.0000        DIVERSION SEGMENTS =           0.0000
           GW IRRIGATION =   922171008.0000             GW IRRIGATION =          48.7200
           SW IRRIGATION =           0.0000             SW IRRIGATION =           0.0000
        SYSTEM LOSSES GW =           0.0000          SYSTEM LOSSES GW =           0.0000
        SYSTEM LOSSES SW =           0.0000          SYSTEM LOSSES SW =           0.0000

               TOTAL OUT =   922171008.0000                 TOTAL OUT =          48.7200

                IN - OUT =           0.0000                  IN - OUT =           0.0000

     PERCENT DISCREPANCY =           0.00         PERCENT DISCREPANCY =           0.00



1
  VOLUMETRIC BUDGET FOR ENTIRE MODEL AT END OF TIME STEP   30, STRESS PERIOD  21
  ------------------------------------------------------------------------------

     CUMULATIVE VOLUMES      L**3       RATES FOR THIS TIME STEP      L**3/T
     ------------------                 ------------------------

           IN:                                      IN:
           ---                                      ---
             STORAGE     =  1062859456.0000               STORAGE     =          47.2809
       CONSTANT HEAD     =           0.0000         CONSTANT HEAD     =           0.0000
     HEAD DEP BOUNDS     =    15038315.0000       HEAD DEP BOUNDS     =           0.2856
      STREAM LEAKAGE     =   662102208.0000        STREAM LEAKAGE     =          12.2575
        UZF RECHARGE     =    72022192.0000          UZF RECHARGE     =           0.0000
               GW ET     =           0.0000                 GW ET     =           0.0000
     SURFACE LEAKAGE     =           0.0000       SURFACE LEAKAGE     =           0.0000
           AG WELLS      =           0.0000             AG WELLS      =           0.0000

                TOTAL IN =  1812022144.0000                  TOTAL IN =          59.8240

          OUT:                                     OUT:
          ----                                     ----
             STORAGE     =   313295136.0000               STORAGE     =           0.2331
       CONSTANT HEAD     =           0.0000         CONSTANT HEAD     =           0.0000
     HEAD DEP BOUNDS     =    15529186.0000       HEAD DEP BOUNDS     =           0.2931
      STREAM LEAKAGE     =   543498048.0000        STREAM LEAKAGE     =          10.5780
        UZF RECHARGE     =           0.0000          UZF RECHARGE     =           0.0000
               GW ET     =    17516984.0000                 GW ET     =           0.0000
     SURFACE LEAKAGE     =           0.0000       SURFACE LEAKAGE     =           0.0000
           AG WELLS      =   922171008.0000             AG WELLS      =          48.7200

               TOTAL OUT =  1812010368.0000                 TOTAL OUT =          59.8242

                IN - OUT =       11776.0000                  IN - OUT =      -1.6785E-04

     PERCENT DISCREPANCY =           0.00         PERCENT DISCREPANCY =          -0.00






         TIME SUMMARY AT END OF TIME STEP   30 IN STRESS PERIOD   21
                    SECONDS     MINUTES      HOURS       DAYS        YEARS
                    -----------------------------------------------------------
   TIME STEP LENGTH  87667.      1461.1      24.352      1.0147     2.77799E-03
 STRESS PERIOD TIME 2.63000E+06  43833.      730.56      30.440     8.33397E-02
         TOTAL TIME 5.26866E+07 8.78110E+05  14635.      609.80      1.6695    
1
1
                            STRESS PERIOD NO.   22, LENGTH =   2630000.    
                            -----------------------------------------------

                              NUMBER OF TIME STEPS =    30

                               MULTIPLIER FOR DELT =     1.000

                            INITIAL TIME STEP SIZE =   87666.66    

 REUSING NON-PARAMETER GHB CELLS FROM LAST STRESS PERIOD

      2 GHB CELLS

 REUSING STREAM SEGMENT DATA FROM LAST STRESS PERIOD



            AREAL INFILTRATION RATE
 READING ON UNIT   19 WITH FORMAT: (FREE)              

            1           2           3           4           5           6           7           8           9          10
 ........................................................................................................................
   1   1.0000E-10  2.0000E-10   0.000       0.000       0.000       0.000       0.000       0.000       0.000       0.000    
   2   2.0000E-10  1.0000E-10  2.0000E-10   0.000       0.000      8.0000E-10  8.0000E-10  5.0000E-10   0.000       0.000    
   3    0.000      5.0000E-10  1.0000E-10  1.0000E-10  8.0000E-10  8.0000E-10  5.0000E-10  5.0000E-10   0.000       0.000    
   4   8.0000E-10  5.0000E-10  1.0000E-10  1.0000E-10  1.0000E-10  1.0000E-10  1.0000E-10  1.0000E-10  2.0000E-10   0.000    
   5   8.0000E-10  5.0000E-10  1.0000E-10  1.0000E-10  1.0000E-10  1.0000E-10  1.0000E-10  1.0000E-10  1.0000E-10  1.0000E-10
   6   8.0000E-10  5.0000E-10  5.0000E-10  2.0000E-10  2.0000E-10  1.0000E-10  1.0000E-10  1.0000E-10  1.0000E-10  5.0000E-10
   7   8.0000E-10  5.0000E-10  5.0000E-10  2.0000E-10  2.0000E-10  1.0000E-10  1.0000E-10  2.0000E-10  2.0000E-10   0.000    
   8    0.000      5.0000E-10  5.0000E-10  2.0000E-10  2.0000E-10  1.0000E-10  1.0000E-10  2.0000E-10  5.0000E-10   0.000    
   9    0.000      5.0000E-10  5.0000E-10  2.0000E-10  2.0000E-10  1.0000E-10  1.0000E-10  2.0000E-10  5.0000E-10   0.000    
  10    0.000      5.0000E-10  5.0000E-10  2.0000E-10  2.0000E-10  1.0000E-10  1.0000E-10  2.0000E-10  5.0000E-10  8.0000E-10
  11    0.000      1.0000E-10  1.0000E-10  1.0000E-10  1.0000E-10  1.0000E-10  1.0000E-10  2.0000E-10  5.0000E-10   0.000    
  12   1.0000E-10  1.0000E-10  1.0000E-10  1.0000E-10  1.0000E-10  1.0000E-10  1.0000E-10  1.0000E-10  2.0000E-10   0.000    
  13   1.0000E-10  1.0000E-10  2.0000E-10  2.0000E-10  2.0000E-10  2.0000E-10  2.0000E-10  1.0000E-10  1.0000E-10   0.000    
  14    0.000      2.0000E-10  5.0000E-10  5.0000E-10  5.0000E-10  5.0000E-10  5.0000E-10  2.0000E-10  1.0000E-10   0.000    
  15    0.000       0.000      8.0000E-10  8.0000E-10  8.0000E-10  8.0000E-10   0.000       0.000       0.000       0.000    

                  ET RATE =  7.500000E-08

 USING ET EXTINCTION DEPTH FROM PREVIOUS STRESS PERIOD. CURRENT PERIOD IS:      22

 USING EXTINCTION WATER CONTENT FROM PREVIOUS STRESS PERIOD. CURRENT PERIOD IS:      22

 USING AIR ENTRY PRESSURE FROM PREVIOUS STRESS PERIOD. CURRENT PERIOD IS:      22

 USING ROOT PRESSURE HEAD FROM PREVIOUS STRESS PERIOD. CURRENT PERIOD IS:      22

 USING ROOT ACTIVITY FROM PREVIOUS STRESS PERIOD. CURRENT PERIOD IS:      22

 PROCESSING AG STRESS PERIOD DATA

 READING AG STRESS PERIOD DATA

 READING IRRIGATION WELL

 END PROCESSING AG STRESS PERIOD DATA OPTIONS
 
 SOLVING FOR HEAD 
                                                   Max.-Head-Change                         Max.-Flux-Residual
  Residual-Control   Outer-Iter.   Inner-Iter.     Column Row Layer    Maximum-Head-Change  Column Row Layer    Maximum-Flux-Residual          L2-NORM 
          0                 1           2             5    8     1       0.8197914893E-01       5    8    1         0.4452608393E+01      0.1201877298E+02
          0                 2           2             5    8     1      -0.7974184859E-02       5    8    1        -0.4452503587E+00      0.1201804205E+01
          0                 3           2             5    8     1       0.5430118168E-03       5    8    1         0.3116751964E-01      0.8412229119E-01
          0                 4           1             5    8     1      -0.2160694184E-04       5    8    1        -0.1274752870E-02      0.3440378144E-02

    ------------------------------------------------
       NWT REQUIRED            4 OUTER ITERATIONS 
       AND A TOTAL OF          7 INNER ITERATIONS.
    ------------------------------------------------

 NO OUTPUT CONTROL FOR STRESS PERIOD   22   TIME STEP    1
 
 SOLVING FOR HEAD 
                                                   Max.-Head-Change                         Max.-Flux-Residual
  Residual-Control   Outer-Iter.   Inner-Iter.     Column Row Layer    Maximum-Head-Change  Column Row Layer    Maximum-Flux-Residual          L2-NORM 
          0                 1           2             5    8     1       0.7849657040E-01       5    8    1         0.4260054635E+01      0.1166491539E+02
          0                 2           2             5    8     1      -0.7635434744E-02       5    8    1        -0.4259956636E+00      0.1166412458E+01
          0                 3           2             5    8     1       0.5199440938E-03       5    8    1         0.2981968398E-01      0.8164401022E-01
          0                 4           1             5    8     1      -0.2068905585E-04       5    8    1        -0.1219626320E-02      0.3338925497E-02

    ------------------------------------------------
       NWT REQUIRED            4 OUTER ITERATIONS 
       AND A TOTAL OF          7 INNER ITERATIONS.
    ------------------------------------------------

 NO OUTPUT CONTROL FOR STRESS PERIOD   22   TIME STEP    2
 
 SOLVING FOR HEAD 
                                                   Max.-Head-Change                         Max.-Flux-Residual
  Residual-Control   Outer-Iter.   Inner-Iter.     Column Row Layer    Maximum-Head-Change  Column Row Layer    Maximum-Flux-Residual          L2-NORM 
          0                 1           2             5    6     1       0.7527598766E-01       5    8    1         0.4079082344E+01      0.1132354878E+02
          0                 2           2             5    6     1      -0.7322162978E-02       5    8    1        -0.4078990817E+00      0.1132284225E+01
          0                 3           2             5    6     1       0.4986114144E-03       5    8    1         0.2855291658E-01      0.7925552430E-01
          0                 4           1             5    6     1      -0.1984016514E-04       5    8    1        -0.1167815522E-02      0.3241286708E-02

    ------------------------------------------------
       NWT REQUIRED            4 OUTER ITERATIONS 
       AND A TOTAL OF          7 INNER ITERATIONS.
    ------------------------------------------------

 NO OUTPUT CONTROL FOR STRESS PERIOD   22   TIME STEP    3
 
 SOLVING FOR HEAD 
                                                   Max.-Head-Change                         Max.-Flux-Residual
  Residual-Control   Outer-Iter.   Inner-Iter.     Column Row Layer    Maximum-Head-Change  Column Row Layer    Maximum-Flux-Residual          L2-NORM 
          0                 1           2             5    8     1       0.1544991798E+00       5    8    1         0.8453667012E+01      0.1331076121E+02
          0                 2           2             5    8     1      -0.1502135033E-01       5    8    1        -0.8449655098E+00      0.1330756331E+01
          0                 3           2             5    8     1       0.1022156274E-02       5    8    1         0.5910429068E-01      0.9312236729E-01
          0                 4           1             5    8     1      -0.4062395857E-04       5    8    1        -0.2414456065E-02      0.3806675971E-02

    ------------------------------------------------
       NWT REQUIRED            4 OUTER ITERATIONS 
       AND A TOTAL OF          7 INNER ITERATIONS.
    ------------------------------------------------

 NO OUTPUT CONTROL FOR STRESS PERIOD   22   TIME STEP    4
 
 SOLVING FOR HEAD 
                                                   Max.-Head-Change                         Max.-Flux-Residual
  Residual-Control   Outer-Iter.   Inner-Iter.     Column Row Layer    Maximum-Head-Change  Column Row Layer    Maximum-Flux-Residual          L2-NORM 
          0                 1           2             5    8     1       0.1472086421E+00       5    8    1         0.8047625408E+01      0.1287110739E+02
          0                 2           2             5    8     1       0.1698995343E-01       5    8    1         0.9451541946E+00      0.1379194538E+01
          0                 3           2             5    8     1       0.4456820247E-02       5    8    1         0.2453891915E+00      0.2553219263E+00
          0                 4           1             5    8     1       0.1169122885E-02       5    8    1         0.6452674331E-01      0.6458750448E-01
          0                 5           1             5    8     1       0.3066870098E-03       5    8    1         0.1691913739E-01      0.1692002880E-01
          0                 6           1             5    8     1       0.8045085526E-04       5    8    1         0.4438645141E-02      0.4438771605E-02

    ------------------------------------------------
       NWT REQUIRED            6 OUTER ITERATIONS 
       AND A TOTAL OF          9 INNER ITERATIONS.
    ------------------------------------------------

 NO OUTPUT CONTROL FOR STRESS PERIOD   22   TIME STEP    5
 
 SOLVING FOR HEAD 
                                                   Max.-Head-Change                         Max.-Flux-Residual
  Residual-Control   Outer-Iter.   Inner-Iter.     Column Row Layer    Maximum-Head-Change  Column Row Layer    Maximum-Flux-Residual          L2-NORM 
          0                 1           2             5    8     1       0.1377544141E+00       5    8    1         0.7520858289E+01      0.1238289638E+02
          0                 2           2             5    8     1       0.2889653667E-01       5    8    1         0.1602748718E+01      0.1880532594E+01
          0                 3           2             5    8     1      -0.2809460546E-02       5    8    1        -0.1599964814E+00      0.1743442200E+00
          0                 4           1             5    8     1       0.1911758860E-03       5    8    1         0.1117807385E-01      0.1154217223E-01
          0                 5           1             5    8     1      -0.7597975505E-05       5    8    1        -0.4560978618E-03      0.4578980691E-03

    ------------------------------------------------
       NWT REQUIRED            5 OUTER ITERATIONS 
       AND A TOTAL OF          8 INNER ITERATIONS.
    ------------------------------------------------

 NO OUTPUT CONTROL FOR STRESS PERIOD   22   TIME STEP    6
 
 SOLVING FOR HEAD 
                                                   Max.-Head-Change                         Max.-Flux-Residual
  Residual-Control   Outer-Iter.   Inner-Iter.     Column Row Layer    Maximum-Head-Change  Column Row Layer    Maximum-Flux-Residual          L2-NORM 
          0                 1           2             5    8     1       0.1287782438E+00       5    8    1         0.7021010853E+01      0.1192738052E+02
          0                 2           2             5    8     1      -0.1252048231E-01       5    8    1        -0.7017580697E+00      0.1192489942E+01
          0                 3           2             5    8     1       0.8519808418E-03       5    8    1         0.4908703963E-01      0.8345079981E-01
          0                 4           1             5    8     1      -0.3386060544E-04       5    8    1        -0.2005234487E-02      0.3411586206E-02

    ------------------------------------------------
       NWT REQUIRED            4 OUTER ITERATIONS 
       AND A TOTAL OF          7 INNER ITERATIONS.
    ------------------------------------------------

 NO OUTPUT CONTROL FOR STRESS PERIOD   22   TIME STEP    7
 
 SOLVING FOR HEAD 
                                                   Max.-Head-Change                         Max.-Flux-Residual
  Residual-Control   Outer-Iter.   Inner-Iter.     Column Row Layer    Maximum-Head-Change  Column Row Layer    Maximum-Flux-Residual          L2-NORM 
          0                 1           2             5    8     1       0.1228504420E+00       5    8    1         0.6691947072E+01      0.1156756717E+02
          0                 2           2             5    8     1      -0.1194412840E-01       5    8    1        -0.6688658856E+00      0.1156525095E+01
          0                 3           2             5    8     1       0.8127618376E-03       5    8    1         0.4678625471E-01      0.8093478306E-01
          0                 4           1             5    8     1      -0.3230190851E-04       5    8    1        -0.1911243953E-02      0.3308777646E-02

    ------------------------------------------------
       NWT REQUIRED            4 OUTER ITERATIONS 
       AND A TOTAL OF          7 INNER ITERATIONS.
    ------------------------------------------------

 NO OUTPUT CONTROL FOR STRESS PERIOD   22   TIME STEP    8
 
 SOLVING FOR HEAD 
                                                   Max.-Head-Change                         Max.-Flux-Residual
  Residual-Control   Outer-Iter.   Inner-Iter.     Column Row Layer    Maximum-Head-Change  Column Row Layer    Maximum-Flux-Residual          L2-NORM 
          0                 1           2             5    8     1       0.1172976675E+00       5    8    1         0.6383916509E+01      0.1122876404E+02
          0                 2           2             5    8     1      -0.1140424016E-01       5    8    1        -0.6380762772E+00      0.1122660019E+01
          0                 3           2             5    8     1       0.7760241812E-03       5    8    1         0.4463254313E-01      0.7856566477E-01
          0                 4           1             5    8     1      -0.3084182886E-04       5    8    1        -0.1823261679E-02      0.3211973743E-02

    ------------------------------------------------
       NWT REQUIRED            4 OUTER ITERATIONS 
       AND A TOTAL OF          7 INNER ITERATIONS.
    ------------------------------------------------

 NO OUTPUT CONTROL FOR STRESS PERIOD   22   TIME STEP    9
 
 SOLVING FOR HEAD 
                                                   Max.-Head-Change                         Max.-Flux-Residual
  Residual-Control   Outer-Iter.   Inner-Iter.     Column Row Layer    Maximum-Head-Change  Column Row Layer    Maximum-Flux-Residual          L2-NORM 
          0                 1           2             5    8     1       0.1120924593E+00       5    8    1         0.6095368971E+01      0.1090922869E+02
          0                 2           2             5    8     1      -0.1089814718E-01       5    8    1        -0.6092342629E+00      0.1090720520E+01
          0                 3           2             5    8     1       0.7415861647E-03       5    8    1         0.4261506415E-01      0.7633120890E-01
          0                 4           1             5    8     1      -0.2947314497E-04       5    8    1        -0.1740844776E-02      0.3120671907E-02

    ------------------------------------------------
       NWT REQUIRED            4 OUTER ITERATIONS 
       AND A TOTAL OF          7 INNER ITERATIONS.
    ------------------------------------------------

 NO OUTPUT CONTROL FOR STRESS PERIOD   22   TIME STEP   10
 
 SOLVING FOR HEAD 
                                                   Max.-Head-Change                         Max.-Flux-Residual
  Residual-Control   Outer-Iter.   Inner-Iter.     Column Row Layer    Maximum-Head-Change  Column Row Layer    Maximum-Flux-Residual          L2-NORM 
          0                 1           2             5    8     1       0.1072097409E+00       5    8    1         0.5824888510E+01      0.1060738552E+02
          0                 2           2             5    8     1       0.2216524015E-01       5    8    1         0.1232418497E+01      0.1518112347E+01
          0                 3           2             5    8     1       0.5813848287E-02       5    8    1         0.3201786311E+00      0.3262095396E+00
          0                 4           1             5    8     1       0.1524955444E-02       5    8    1         0.8417070352E-01      0.8420487697E-01
          0                 5           1             5    8     1       0.3999916042E-03       5    8    1         0.2206991391E-01      0.2207065536E-01
          0                 6           1             5    8     1       0.1049167149E-03       5    8    1         0.5789171531E-02      0.5789274098E-02
          0                 7           1             5    8     1       0.2751937132E-04       5    8    1         0.1518474676E-02      0.1518503888E-02

    ------------------------------------------------
       NWT REQUIRED            7 OUTER ITERATIONS 
       AND A TOTAL OF         10 INNER ITERATIONS.
    ------------------------------------------------

 NO OUTPUT CONTROL FOR STRESS PERIOD   22   TIME STEP   11
 
 SOLVING FOR HEAD 
                                                   Max.-Head-Change                         Max.-Flux-Residual
  Residual-Control   Outer-Iter.   Inner-Iter.     Column Row Layer    Maximum-Head-Change  Column Row Layer    Maximum-Flux-Residual          L2-NORM 
          0                 1           2             4    8     1       0.1410245206E+00       4    8    1         0.7545008889E+01      0.1222010942E+02
          0                 2           2             5    8     1       0.2670299333E-01       5    8    1         0.1479974897E+01      0.1685732992E+01
          0                 3           2             5    7     1       0.4551990560E-03       5    7    1         0.2627525294E-01      0.6084999979E-01
          0                 4           1             5    8     1       0.2545108960E-04       5    8    1         0.1504491435E-02      0.2773642799E-02

    ------------------------------------------------
       NWT REQUIRED            4 OUTER ITERATIONS 
       AND A TOTAL OF          7 INNER ITERATIONS.
    ------------------------------------------------

 NO OUTPUT CONTROL FOR STRESS PERIOD   22   TIME STEP   12
 
 SOLVING FOR HEAD 
                                                   Max.-Head-Change                         Max.-Flux-Residual
  Residual-Control   Outer-Iter.   Inner-Iter.     Column Row Layer    Maximum-Head-Change  Column Row Layer    Maximum-Flux-Residual          L2-NORM 
          0                 1           2             5    7     1       0.1511080998E+00       5    7    1         0.8177300449E+01      0.1428831803E+02
          0                 2           2             5    7     1      -0.1469168862E-01       5    7    1        -0.8173459905E+00      0.1428259805E+01
          0                 3           2             5    7     1       0.9997158093E-03       5    7    1         0.5717179270E-01      0.9992028626E-01
          0                 4           1             5    7     1      -0.3973165128E-04       5    7    1        -0.2335481101E-02      0.4082842277E-02

    ------------------------------------------------
       NWT REQUIRED            4 OUTER ITERATIONS 
       AND A TOTAL OF          7 INNER ITERATIONS.
    ------------------------------------------------

 NO OUTPUT CONTROL FOR STRESS PERIOD   22   TIME STEP   13
 
 SOLVING FOR HEAD 
                                                   Max.-Head-Change                         Max.-Flux-Residual
  Residual-Control   Outer-Iter.   Inner-Iter.     Column Row Layer    Maximum-Head-Change  Column Row Layer    Maximum-Flux-Residual          L2-NORM 
          0                 1           2             5    7     1       0.1460086451E+00       5    7    1         0.7874145727E+01      0.1423526214E+02
          0                 2           2             5    6     1       0.2017187266E-01       5    6    1         0.1127393158E+01      0.1768647732E+01
          0                 3           2             5    6     1       0.5293126592E-02       5    6    1         0.2909876707E+00      0.3063190048E+00
          0                 4           2             5    6     1       0.1388935305E-02       5    6    1         0.7665728596E-01      0.7674909295E-01
          0                 5           2             5    6     1       0.3644615200E-03       5    6    1         0.2010198358E-01      0.2010303946E-01
          0                 6           1             5    6     1       0.9563601385E-04       5    6    1         0.5274924701E-02      0.5275183029E-02

    ------------------------------------------------
       NWT REQUIRED            6 OUTER ITERATIONS 
       AND A TOTAL OF         11 INNER ITERATIONS.
    ------------------------------------------------

 NO OUTPUT CONTROL FOR STRESS PERIOD   22   TIME STEP   14
 
 SOLVING FOR HEAD 
                                                   Max.-Head-Change                         Max.-Flux-Residual
  Residual-Control   Outer-Iter.   Inner-Iter.     Column Row Layer    Maximum-Head-Change  Column Row Layer    Maximum-Flux-Residual          L2-NORM 
          0                 1           2             5    7     1       0.1422634733E+00       5    7    1         0.7618462896E+01      0.1509969101E+02
          0                 2           2             5    7     1      -0.1351023961E-01       5    7    1        -0.7614746229E+00      0.1270969480E+01
          0                 3           2             4    8     1      -0.2382607712E-02       4    8    1        -0.1336660682E+00      0.1606817325E+00
          0                 4           2             4    8     1      -0.6872433197E-03       4    8    1        -0.3830094692E-01      0.3856054344E-01
          0                 5           2             4    8     1      -0.1982251654E-03       4    8    1        -0.1105617613E-01      0.1105698610E-01
          0                 6           1             4    8     1      -0.5717378909E-04       4    8    1        -0.3188784624E-02      0.3188811555E-02

    ------------------------------------------------
       NWT REQUIRED            6 OUTER ITERATIONS 
       AND A TOTAL OF         11 INNER ITERATIONS.
    ------------------------------------------------

 NO OUTPUT CONTROL FOR STRESS PERIOD   22   TIME STEP   15
 
 SOLVING FOR HEAD 
                                                   Max.-Head-Change                         Max.-Flux-Residual
  Residual-Control   Outer-Iter.   Inner-Iter.     Column Row Layer    Maximum-Head-Change  Column Row Layer    Maximum-Flux-Residual          L2-NORM 
          0                 1           2             5    7     1       0.1384269268E+00       5    7    1         0.7410522555E+01      0.1468263438E+02
          0                 2           2             4    8     1       0.3655451446E-01       4    8    1         0.1993892373E+01      0.2361309896E+01
          0                 3           2             4    8     1       0.9816414170E-02       4    8    1         0.5317736712E+00      0.5669846633E+00
          0                 4           2             4    8     1       0.2636114609E-02       4    8    1         0.1430283305E+00      0.1510048989E+00
          0                 5           2             4    8     1       0.7079035185E-03       4    8    1         0.3840016671E-01      0.4044095709E-01
          0                 6           2             4    8     1       0.1901000195E-03       4    8    1         0.1031233536E-01      0.1083705678E-01
          0                 7           1             4    8     1       0.5104915260E-04       4    8    1         0.2769255886E-02      0.2904171628E-02

    ------------------------------------------------
       NWT REQUIRED            7 OUTER ITERATIONS 
       AND A TOTAL OF         13 INNER ITERATIONS.
    ------------------------------------------------

 NO OUTPUT CONTROL FOR STRESS PERIOD   22   TIME STEP   16
 
 SOLVING FOR HEAD 
                                                   Max.-Head-Change                         Max.-Flux-Residual
  Residual-Control   Outer-Iter.   Inner-Iter.     Column Row Layer    Maximum-Head-Change  Column Row Layer    Maximum-Flux-Residual          L2-NORM 
          0                 1           2             5    7     1       0.1326138822E+00       5    7    1         0.7089471349E+01      0.1423599716E+02
          0                 2           2             5    7     1       0.3477183594E-01       5    7    1         0.1942559695E+01      0.2196914720E+01
          0                 3           2             5    7     1      -0.1547276168E-02       5    7    1        -0.8946875492E-01      0.1156778234E+00
          0                 4           2             5    7     1       0.1052891468E-03       5    7    1         0.6212655116E-02      0.6938082910E-02
          0                 5           1             5    7     1      -0.4184586409E-05       5    7    1        -0.2519843397E-03      0.2565079222E-03

    ------------------------------------------------
       NWT REQUIRED            5 OUTER ITERATIONS 
       AND A TOTAL OF          9 INNER ITERATIONS.
    ------------------------------------------------

 NO OUTPUT CONTROL FOR STRESS PERIOD   22   TIME STEP   17
 
 SOLVING FOR HEAD 
                                                   Max.-Head-Change                         Max.-Flux-Residual
  Residual-Control   Outer-Iter.   Inner-Iter.     Column Row Layer    Maximum-Head-Change  Column Row Layer    Maximum-Flux-Residual          L2-NORM 
          0                 1           2             4    7     1       0.1609970656E+00       4    7    1         0.8536369788E+01      0.1576456412E+02
          0                 2           2             4    7     1      -0.1564646817E-01       4    7    1        -0.8532111797E+00      0.1543806007E+01
          0                 3           2             5    8     1       0.1648520948E-02       5    8    1         0.8956801152E-01      0.1380380260E+00
          0                 4           1             5    8     1       0.4323882390E-03       5    8    1         0.2391732561E-01      0.2428715505E-01
          0                 5           1             5    8     1       0.1134101068E-03       5    8    1         0.6257033696E-02      0.6257702203E-02
          0                 6           1             5    8     1       0.2974609030E-04       5    8    1         0.1641220017E-02      0.1641317215E-02

    ------------------------------------------------
       NWT REQUIRED            6 OUTER ITERATIONS 
       AND A TOTAL OF          9 INNER ITERATIONS.
    ------------------------------------------------

 NO OUTPUT CONTROL FOR STRESS PERIOD   22   TIME STEP   18
 
 SOLVING FOR HEAD 
                                                   Max.-Head-Change                         Max.-Flux-Residual
  Residual-Control   Outer-Iter.   Inner-Iter.     Column Row Layer    Maximum-Head-Change  Column Row Layer    Maximum-Flux-Residual          L2-NORM 
          0                 1           2             4    7     1       0.1582586694E+00       4    7    1         0.8389115370E+01      0.1544631443E+02
          0                 2           2             4    7     1       0.3562737682E-01       4    7    1         0.1960358767E+01      0.2574833518E+01
          0                 3           2             4    7     1       0.9529550192E-02       4    7    1         0.5169196123E+00      0.6210909971E+00
          0                 4           1             4    7     1       0.2548924581E-02       4    7    1         0.1387253750E+00      0.1646322514E+00
          0                 5           1             4    7     1       0.6817704799E-03       4    7    1         0.3708659718E-01      0.4377653037E-01
          0                 6           1             4    7     1       0.1823543766E-03       4    7    1         0.9920472010E-02      0.1164993654E-01
          0                 7           1             4    7     1       0.4877429112E-04       4    7    1         0.2653411592E-02      0.3100519009E-02

    ------------------------------------------------
       NWT REQUIRED            7 OUTER ITERATIONS 
       AND A TOTAL OF         10 INNER ITERATIONS.
    ------------------------------------------------

 NO OUTPUT CONTROL FOR STRESS PERIOD   22   TIME STEP   19
 
 SOLVING FOR HEAD 
                                                   Max.-Head-Change                         Max.-Flux-Residual
  Residual-Control   Outer-Iter.   Inner-Iter.     Column Row Layer    Maximum-Head-Change  Column Row Layer    Maximum-Flux-Residual          L2-NORM 
          0                 1           2             4    7     1       0.1521003255E+00       4    7    1         0.8052914007E+01      0.1507770862E+02
          0                 2           2             5    6     1       0.2862842875E-01       5    6    1         0.1593565020E+01      0.2025630016E+01
          0                 3           2             5    6     1       0.7511520771E-02       5    6    1         0.4134256469E+00      0.4255760801E+00
          0                 4           2             5    6     1       0.1970886277E-02       5    6    1         0.1087671531E+00      0.1089069005E+00
          0                 5           2             5    6     1       0.5171248965E-03       5    6    1         0.2852720338E-01      0.2852863792E-01
          0                 6           2             5    6     1       0.1356842576E-03       5    6    1         0.7485447859E-02      0.7485517622E-02
          0                 7           1             5    6     1       0.3560110692E-04       5    6    1         0.1964032457E-02      0.1964053971E-02

    ------------------------------------------------
       NWT REQUIRED            7 OUTER ITERATIONS 
       AND A TOTAL OF         13 INNER ITERATIONS.
    ------------------------------------------------

 NO OUTPUT CONTROL FOR STRESS PERIOD   22   TIME STEP   20
 
 SOLVING FOR HEAD 
                                                   Max.-Head-Change                         Max.-Flux-Residual
  Residual-Control   Outer-Iter.   Inner-Iter.     Column Row Layer    Maximum-Head-Change  Column Row Layer    Maximum-Flux-Residual          L2-NORM 
          0                 1           2             4    7     1       0.1498702841E+00       4    7    1         0.7868446696E+01      0.1633320617E+02
          0                 2           2             4    7     1      -0.1431399223E-01       4    7    1        -0.7864359039E+00      0.1574410260E+01
          0                 3           2             4    8     1       0.2304292621E-02       4    8    1         0.1239129114E+00      0.1669720612E+00
          0                 4           2             4    8     1       0.6186535301E-03       4    8    1         0.3361181780E-01      0.3404790811E-01
          0                 5           2             4    8     1       0.1660949898E-03       4    8    1         0.9011029683E-02      0.9012803526E-02
          0                 6           1             4    8     1       0.4459289893E-04       4    8    1         0.2419264249E-02      0.2419360868E-02

    ------------------------------------------------
       NWT REQUIRED            6 OUTER ITERATIONS 
       AND A TOTAL OF         11 INNER ITERATIONS.
    ------------------------------------------------

 NO OUTPUT CONTROL FOR STRESS PERIOD   22   TIME STEP   21
 
 SOLVING FOR HEAD 
                                                   Max.-Head-Change                         Max.-Flux-Residual
  Residual-Control   Outer-Iter.   Inner-Iter.     Column Row Layer    Maximum-Head-Change  Column Row Layer    Maximum-Flux-Residual          L2-NORM 
          0                 1           2             4    7     1       0.1485674783E+00       4    7    1         0.7803263757E+01      0.1602926835E+02
          0                 2           2             4    8     1       0.3181539578E-01       4    8    1         0.1741489397E+01      0.2683761991E+01
          0                 3           2             4    8     1       0.8545747888E-02       4    8    1         0.4624099026E+00      0.6175781984E+00
          0                 4           2             4    8     1       0.2295409451E-02       4    8    1         0.1245380476E+00      0.1629638738E+00
          0                 5           2             5    7     1       0.4990401547E-03       5    7    1         0.2753637867E-01      0.3205886697E-01
          0                 6           2             5    7     1       0.1308195736E-03       5    7    1         0.7222265105E-02      0.7406679512E-02
          0                 7           1             5    7     1       0.3429334955E-04       5    7    1         0.1893105476E-02      0.1896601072E-02

    ------------------------------------------------
       NWT REQUIRED            7 OUTER ITERATIONS 
       AND A TOTAL OF         13 INNER ITERATIONS.
    ------------------------------------------------

 NO OUTPUT CONTROL FOR STRESS PERIOD   22   TIME STEP   22
 
 SOLVING FOR HEAD 
                                                   Max.-Head-Change                         Max.-Flux-Residual
  Residual-Control   Outer-Iter.   Inner-Iter.     Column Row Layer    Maximum-Head-Change  Column Row Layer    Maximum-Flux-Residual          L2-NORM 
          0                 1           2             4    7     1       0.1483343629E+00       4    7    1         0.7800333094E+01      0.1570218751E+02
          0                 2           2             5    7     1       0.1778216022E-01       5    7    1         0.9988715544E+00      0.1551471860E+01
          0                 3           2             5    7     1      -0.1740750029E-02       5    7    1        -0.9935012537E-01      0.1249614476E+00
          0                 4           2             4    7     1      -0.1757333181E-03       4    7    1        -0.9925380450E-02      0.1243517381E-01
          0                 5           1             4    7     1      -0.5049469976E-04       4    7    1        -0.2820610825E-02      0.2835405542E-02

    ------------------------------------------------
       NWT REQUIRED            5 OUTER ITERATIONS 
       AND A TOTAL OF          9 INNER ITERATIONS.
    ------------------------------------------------

 NO OUTPUT CONTROL FOR STRESS PERIOD   22   TIME STEP   23
 
 SOLVING FOR HEAD 
                                                   Max.-Head-Change                         Max.-Flux-Residual
  Residual-Control   Outer-Iter.   Inner-Iter.     Column Row Layer    Maximum-Head-Change  Column Row Layer    Maximum-Flux-Residual          L2-NORM 
          0                 1           2             4    7     1       0.1464406844E+00       4    7    1         0.7703336035E+01      0.1541517369E+02
          0                 2           2             4    7     1       0.3980404306E-01       4    7    1         0.2157637893E+01      0.3028140089E+01
          0                 3           2             4    7     1       0.1081466783E-01       4    7    1         0.5805598878E+00      0.7636788722E+00
          0                 4           2             4    7     1       0.2938497490E-02       4    7    1         0.1580921663E+00      0.2070704039E+00
          0                 5           2             4    6     1       0.6691226730E-03       4    6    1         0.3645626339E-01      0.3652032580E-01
          0                 6           2             4    6     1       0.1784161819E-03       4    6    1         0.9732013073E-02      0.9734424561E-02
          0                 7           1             4    6     1       0.4757323188E-04       4    6    1         0.2593887973E-02      0.2593974571E-02

    ------------------------------------------------
       NWT REQUIRED            7 OUTER ITERATIONS 
       AND A TOTAL OF         13 INNER ITERATIONS.
    ------------------------------------------------

 NO OUTPUT CONTROL FOR STRESS PERIOD   22   TIME STEP   24
 
 SOLVING FOR HEAD 
                                                   Max.-Head-Change                         Max.-Flux-Residual
  Residual-Control   Outer-Iter.   Inner-Iter.     Column Row Layer    Maximum-Head-Change  Column Row Layer    Maximum-Flux-Residual          L2-NORM 
          0                 1           2             4    7     1       0.1421639761E+00       4    7    1         0.7475206909E+01      0.1509237480E+02
          0                 2           2             4    7     1      -0.1354214864E-01       4    7    1        -0.7471360693E+00      0.1401879633E+01
          0                 3           2             4    7     1       0.9214884719E-03       4    7    1         0.5242916264E-01      0.1024359781E+00
          0                 4           1             4    6     1       0.4850909516E-04       4    6    1         0.2848114545E-02      0.4786430656E-02

    ------------------------------------------------
       NWT REQUIRED            4 OUTER ITERATIONS 
       AND A TOTAL OF          7 INNER ITERATIONS.
    ------------------------------------------------

 NO OUTPUT CONTROL FOR STRESS PERIOD   22   TIME STEP   25
 
 SOLVING FOR HEAD 
                                                   Max.-Head-Change                         Max.-Flux-Residual
  Residual-Control   Outer-Iter.   Inner-Iter.     Column Row Layer    Maximum-Head-Change  Column Row Layer    Maximum-Flux-Residual          L2-NORM 
          0                 1           2             4    7     1       0.1407087014E+00       4    7    1         0.7401349916E+01      0.1482822474E+02
          0                 2           2             4    7     1      -0.1367783053E-01       4    7    1        -0.7397550291E+00      0.1413822264E+01
          0                 3           2             5    6     1      -0.1285822902E-02       5    6    1        -0.7435643770E-01      0.1226072871E+00
          0                 4           2             5    6     1      -0.3632256086E-03       5    6    1        -0.2054344073E-01      0.2093169262E-01
          0                 5           1             5    6     1      -0.1026036969E-03       5    6    1        -0.5820104690E-02      0.5820239050E-02
          0                 6           1             5    6     1      -0.2898271296E-04       5    6    1        -0.1643765364E-02      0.1643782368E-02

    ------------------------------------------------
       NWT REQUIRED            6 OUTER ITERATIONS 
       AND A TOTAL OF         10 INNER ITERATIONS.
    ------------------------------------------------

 NO OUTPUT CONTROL FOR STRESS PERIOD   22   TIME STEP   26
 
 SOLVING FOR HEAD 
                                                   Max.-Head-Change                         Max.-Flux-Residual
  Residual-Control   Outer-Iter.   Inner-Iter.     Column Row Layer    Maximum-Head-Change  Column Row Layer    Maximum-Flux-Residual          L2-NORM 
          0                 1           2             4    7     1       0.1389662605E+00       4    7    1         0.7310886466E+01      0.1458298888E+02
          0                 2           2             5    6     1       0.2442715551E-01       5    6    1         0.1367639249E+01      0.1963679568E+01
          0                 3           2             5    6     1       0.6409917099E-02       5    6    1         0.3522028605E+00      0.4132996082E+00
          0                 4           2             5    6     1       0.1682037109E-02       5    6    1         0.9284685102E-01      0.1066781413E+00
          0                 5           2             5    6     1       0.4413854568E-03       5    6    1         0.2434603245E-01      0.2796812227E-01
          0                 6           2             5    6     1       0.1158243764E-03       5    6    1         0.6389014483E-02      0.7341861568E-02
          0                 7           1             5    6     1       0.3039352087E-04       5    6    1         0.1676519063E-02      0.1927673871E-02

    ------------------------------------------------
       NWT REQUIRED            7 OUTER ITERATIONS 
       AND A TOTAL OF         13 INNER ITERATIONS.
    ------------------------------------------------

 NO OUTPUT CONTROL FOR STRESS PERIOD   22   TIME STEP   27
 
 SOLVING FOR HEAD 
                                                   Max.-Head-Change                         Max.-Flux-Residual
  Residual-Control   Outer-Iter.   Inner-Iter.     Column Row Layer    Maximum-Head-Change  Column Row Layer    Maximum-Flux-Residual          L2-NORM 
          0                 1           2             4    7     1       0.1373194308E+00       4    7    1         0.7224064746E+01      0.1432399455E+02
          0                 2           2             4    8     1       0.2895643164E-01       4    8    1         0.1558342660E+01      0.2551546668E+01
          0                 3           2             4    8     1       0.7868568499E-02       4    8    1         0.4232159951E+00      0.5672919493E+00
          0                 4           2             4    8     1       0.2139095176E-02       4    8    1         0.1150195661E+00      0.1533484974E+00
          0                 5           2             4    8     1       0.5817670349E-03       4    8    1         0.3127104942E-01      0.4163635632E-01
          0                 6           2             4    8     1       0.1582905225E-03       4    8    1         0.8505553341E-02      0.1131239714E-01
          0                 7           1             4    8     1       0.4308741366E-04       4    8    1         0.2314454973E-02      0.3075428099E-02

    ------------------------------------------------
       NWT REQUIRED            7 OUTER ITERATIONS 
       AND A TOTAL OF         13 INNER ITERATIONS.
    ------------------------------------------------

 NO OUTPUT CONTROL FOR STRESS PERIOD   22   TIME STEP   28
 
 SOLVING FOR HEAD 
                                                   Max.-Head-Change                         Max.-Flux-Residual
  Residual-Control   Outer-Iter.   Inner-Iter.     Column Row Layer    Maximum-Head-Change  Column Row Layer    Maximum-Flux-Residual          L2-NORM 
          0                 1           2             4    7     1       0.1364146390E+00       4    7    1         0.7180432685E+01      0.1404629335E+02
          0                 2           2             4    7     1       0.3764376424E-01       4    7    1         0.2009464124E+01      0.2852625725E+01
          0                 3           2             4    7     1       0.1025363978E-01       4    7    1         0.5517062305E+00      0.7082396009E+00
          0                 4           2             4    7     1       0.2782709134E-02       4    7    1         0.1498768878E+00      0.1697465996E+00
          0                 5           2             4    7     1       0.7463305015E-03       4    7    1         0.4064437170E-01      0.4193037484E-01
          0                 6           1             4    7     1       0.2002374174E-03       4    7    1         0.1086093413E-01      0.1106982646E-01
          0                 7           1             4    7     1       0.5374147456E-04       4    7    1         0.2916737759E-02      0.2979314478E-02

    ------------------------------------------------
       NWT REQUIRED            7 OUTER ITERATIONS 
       AND A TOTAL OF         12 INNER ITERATIONS.
    ------------------------------------------------

 NO OUTPUT CONTROL FOR STRESS PERIOD   22   TIME STEP   29
 
 SOLVING FOR HEAD 
                                                   Max.-Head-Change                         Max.-Flux-Residual
  Residual-Control   Outer-Iter.   Inner-Iter.     Column Row Layer    Maximum-Head-Change  Column Row Layer    Maximum-Flux-Residual          L2-NORM 
          0                 1           2             4    7     1       0.1327844402E+00       4    7    1         0.6990165384E+01      0.1326811392E+02
          0                 2           2             4    6     1       0.3165049358E-01       4    6    1         0.1737209913E+01      0.1989420679E+01
          0                 3           2             4    6     1       0.8438789028E-02       4    6    1         0.4594079324E+00      0.4644742222E+00
          0                 4           2             4    6     1       0.2249993095E-02       4    6    1         0.1227212439E+00      0.1227477921E+00
          0                 5           2             4    6     1       0.5999048066E-03       4    6    1         0.3271126748E-01      0.3271197134E-01
          0                 6           2             4    6     1       0.1599497580E-03       4    6    1         0.8722020406E-02      0.8722114951E-02
          0                 7           1             4    6     1       0.4264664234E-04       4    6    1         0.2325496424E-02      0.2325525376E-02

    ------------------------------------------------
       NWT REQUIRED            7 OUTER ITERATIONS 
       AND A TOTAL OF         13 INNER ITERATIONS.
    ------------------------------------------------

 NO OUTPUT CONTROL FOR STRESS PERIOD   22   TIME STEP   30



 STREAM LISTING     PERIOD     22   STEP       30

 LAYER ROW COL. STREAM  RCH.  FLOW INTO     FLOW TO   FLOW OUT OF   OVRLND.     DIRECT     STREAM       STREAM     STREAM     STREAM   STREAMBED  STREAMBED
                SEG.NO.  NO.  STRM. RCH.    AQUIFER    STRM. RCH.    RUNOFF     PRECIP       ET          HEAD       DEPTH      WIDTH   CONDCTNC.   GRADIENT

   1    1    1     1     1    2.4431E+01  2.4251E-01   2.4189E+01  0.000E+00  0.000E+00  0.000E+00  1.09422E+03  1.170E+00  1.292E+01  5.816E-02  1.390E+00
   1    2    2     1     2    2.4189E+01  3.7499E-01   2.3814E+01  0.000E+00  0.000E+00  0.000E+00  1.08922E+03  1.165E+00  1.286E+01  9.003E-02  1.388E+00
   1    3    3     1     3    2.3814E+01  3.1923E-01   2.3495E+01  0.000E+00  0.000E+00  0.000E+00  1.08358E+03  1.160E+00  1.279E+01  7.674E-02  1.387E+00
   1    3    4     1     4    2.3495E+01  2.9350E-01   2.3201E+01  0.000E+00  0.000E+00  0.000E+00  1.07856E+03  1.155E+00  1.273E+01  7.064E-02  1.385E+00
   1    4    5     2     1    2.1201E+01  3.1894E-01   2.0882E+01  0.000E+00  0.000E+00  0.000E+00  1.07302E+03  1.089E+00  1.200E+01  7.800E-02  1.363E+00
   1    5    6     2     2    2.0882E+01  2.4481E-01   2.0637E+01  0.000E+00  0.000E+00  0.000E+00  1.06759E+03  1.080E+00  1.200E+01  6.000E-02  1.360E+00
   1    6    6     2     3    2.0637E+01  2.4435E-01   2.0393E+01  0.000E+00  0.000E+00  0.000E+00  1.06286E+03  1.072E+00  1.200E+01  6.000E-02  1.357E+00
   1    7    6     2     4    2.0393E+01  2.4389E-01   2.0149E+01  0.000E+00  0.000E+00  0.000E+00  1.05814E+03  1.065E+00  1.200E+01  6.000E-02  1.355E+00
   1    8    6     2     5    2.0149E+01  2.4343E-01   1.9906E+01  0.000E+00  0.000E+00  0.000E+00  1.05342E+03  1.057E+00  1.200E+01  6.000E-02  1.352E+00
   1    3    5     3     1    2.0000E+00  2.8252E-01   1.7175E+00  0.000E+00  0.000E+00  0.000E+00  1.07555E+03  1.909E+00  9.636E+00  7.227E-02  1.955E+00
   1    3    6     3     2    1.7175E+00  2.4905E-01   1.4684E+00  0.000E+00  0.000E+00  0.000E+00  1.07264E+03  1.727E+00  8.909E+00  6.682E-02  1.864E+00
   1    3    7     3     3    1.4684E+00  1.9718E-01   1.2712E+00  0.000E+00  0.000E+00  0.000E+00  1.06987E+03  1.555E+00  8.218E+00  5.547E-02  1.777E+00
   1    4    8     3     4    1.2712E+00  2.2567E-01   1.0456E+00  0.000E+00  0.000E+00  0.000E+00  1.06682E+03  1.364E+00  7.455E+00  6.709E-02  1.682E+00
   1    5    8     3     5    1.0456E+00  1.5790E-01   8.8768E-01  0.000E+00  0.000E+00  0.000E+00  1.06362E+03  1.164E+00  6.655E+00  4.991E-02  1.582E+00
   1    6    8     3     6    8.8768E-01  5.5980E-02   8.3170E-01  0.000E+00  0.000E+00  0.000E+00  1.06158E+03  1.036E+00  6.145E+00  1.844E-02  1.518E+00
   1    5   10     4     1    1.0000E+01  9.0919E-02   9.9091E+00  0.000E+00  0.000E+00  0.000E+00  1.07836E+03  6.368E-01  1.000E+01  2.500E-02  1.212E+00
   1    5    9     4     2    9.9091E+00  1.8158E-01   9.7275E+00  0.000E+00  0.000E+00  0.000E+00  1.07154E+03  6.315E-01  1.000E+01  5.000E-02  1.211E+00
   1    6    8     4     3    9.7275E+00  1.2689E-01   9.6006E+00  0.000E+00  0.000E+00  0.000E+00  1.06381E+03  6.256E-01  1.000E+01  3.500E-02  1.209E+00
   1    6    8     5     1    1.0432E+01  2.2686E-01   1.0205E+01  0.000E+00  0.000E+00  0.000E+00  1.05868E+03  6.790E-01  1.542E+01  6.166E-02  1.226E+00
   1    7    7     5     2    1.0205E+01  2.7894E-01   9.9265E+00  0.000E+00  0.000E+00  0.000E+00  1.05417E+03  6.732E-01  1.519E+01  7.594E-02  1.224E+00
   1    8    7     5     3    9.9265E+00  1.9221E-01   9.7343E+00  0.000E+00  0.000E+00  0.000E+00  1.04992E+03  6.676E-01  1.497E+01  5.241E-02  1.223E+00
   1    8    6     5     4    9.7343E+00  1.3577E-01   9.5985E+00  0.000E+00  0.000E+00  0.000E+00  1.04691E+03  6.637E-01  1.482E+01  3.706E-02  1.221E+00
   1    9    6     6     1    2.9504E+01  2.6070E-01   2.9244E+01  0.000E+00  0.000E+00  0.000E+00  1.04407E+03  1.345E+00  1.200E+01  6.000E-02  1.448E+00
   1   10    7     6     2    2.9244E+01  2.6027E-01   2.8983E+01  0.000E+00  0.000E+00  0.000E+00  1.03952E+03  1.338E+00  1.200E+01  6.000E-02  1.446E+00
   1   11    7     6     3    2.8983E+01  2.5984E-01   2.8723E+01  0.000E+00  0.000E+00  0.000E+00  1.03497E+03  1.331E+00  1.200E+01  6.000E-02  1.444E+00
   1   12    7     6     4    2.8723E+01  2.5941E-01   2.8464E+01  0.000E+00  0.000E+00  0.000E+00  1.03041E+03  1.324E+00  1.200E+01  6.000E-02  1.441E+00
   1   13    7     6     5    2.8464E+01  4.5603E-03   2.8459E+01  0.000E+00  0.000E+00  0.000E+00  1.02723E+03  1.320E+00  1.200E+01  2.400E-02  6.334E-02
   1   14    9     7     1    1.5000E+02  1.3347E+00   1.4867E+02  0.000E+00  0.000E+00  0.000E+00  1.03987E+03  2.288E+00  5.529E+01  5.593E-01  7.955E-01
   1   13    8     7     2    1.4867E+02  1.8402E+00   1.4683E+02  0.000E+00  0.000E+00  0.000E+00  1.03478E+03  2.279E+00  5.526E+01  6.148E-01  9.978E-01
   1   13    7     7     3    1.4683E+02  1.4804E+00   1.4534E+02  0.000E+00  0.000E+00  0.000E+00  1.02969E+03  2.270E+00  5.522E+01  5.584E-01  8.836E-01
   1   13    6     8     1    1.7380E+02  9.4593E-01   1.7286E+02  0.000E+00  0.000E+00  0.000E+00  1.02485E+03  2.974E+00  4.312E+01  4.394E-01  7.176E-01
   1   13    5     8     2    1.7286E+02  1.9577E-01   1.7266E+02  0.000E+00  0.000E+00  0.000E+00  1.01860E+03  2.970E+00  4.307E+01  4.389E-01  1.487E-01
   1   13    4     8     3    1.7266E+02 -2.3770E+00   1.7504E+02  0.000E+00  0.000E+00  0.000E+00  1.01235E+03  2.977E+00  4.317E+01  4.399E+00 -1.801E-01
   1   13    3     8     4    1.7504E+02 -3.6471E+00   1.7869E+02  0.000E+00  0.000E+00  0.000E+00  1.00612E+03  2.996E+00  4.345E+01  4.427E+00 -2.746E-01
   1   13    2     8     5    1.7869E+02 -2.6105E+00   1.8130E+02  0.000E+00  0.000E+00  0.000E+00  9.99891E+02  3.016E+00  4.373E+01  4.457E+00 -1.952E-01
   1   13    1     8     6    1.8130E+02 -2.0290E+00   1.8333E+02  0.000E+00  0.000E+00  0.000E+00  9.94906E+02  3.031E+00  4.394E+01  2.687E+00 -2.517E-01





UNSATURATED ZONE PACKAGE VOLUMETRIC BUDGET FOR  TIME STEP    30 STRESS PERIOD   22
  ------------------------------------------------------------------------------



     CUMULATIVE VOLUMES      L**3       RATES FOR THIS TIME STEP      L**3/T
     ------------------                 ------------------------

           IN:                                      IN:
           ---                                      ---
        INFILTRATION =   998561609.1293          INFILTRATION =          12.0675

          OUT:                                     OUT:
          ----                                     ----
              UZF ET =   854451324.0732                UZF ET =          12.0675
        UZF RECHARGE =   120000370.9359          UZF RECHARGE =          26.4958

            IN - OUT =    24109914.1202              IN - OUT =         -26.4958

          STORAGE:                                 STORAGE:
          --------                                 --------
      STORAGE CHANGE =    24109899.8724        STORAGE CHANGE =         -26.4958

 PERCENT DISCREPANCY IS DIFFERENCE BETWEEN IN-OUT MINUS CHANGE IN STORAGE
 DIVIDED BY THE AVERAGE OF IN AND OUT TIMES 100

 PERCENT DISCREPANCY =           0.00     PERCENT DISCREPANCY =           0.00






1
  VOLUMETRIC BUDGET FOR AGRICULTURAL FIELDS AT  END OF TIME STEP   30, STRESS PERIOD  22
  ------------------------------------------------------------------------------

     CUMULATIVE VOLUMES      L**3       RATES FOR THIS TIME STEP      L**3/T
     ------------------                 ------------------------

           IN:                                      IN:
           ---                                      ---
               AG WELLS  =   951679488.0000                 AG WELLS  =          11.2200
      DIVERSION SEGMENTS =           0.0000        DIVERSION SEGMENTS =           0.0000
           GW IRRIGATION =           0.0000             GW IRRIGATION =           0.0000
           SW IRRIGATION =           0.0000             SW IRRIGATION =           0.0000
        SYSTEM LOSSES GW =           0.0000          SYSTEM LOSSES GW =           0.0000
        SYSTEM LOSSES SW =           0.0000          SYSTEM LOSSES SW =           0.0000

                TOTAL IN =   951679488.0000                  TOTAL IN =          11.2200

          OUT:                                     OUT:
          ----                                     ----
               AG WELLS  =           0.0000                 AG WELLS  =           0.0000
      DIVERSION SEGMENTS =           0.0000        DIVERSION SEGMENTS =           0.0000
           GW IRRIGATION =   951679488.0000             GW IRRIGATION =          11.2200
           SW IRRIGATION =           0.0000             SW IRRIGATION =           0.0000
        SYSTEM LOSSES GW =           0.0000          SYSTEM LOSSES GW =           0.0000
        SYSTEM LOSSES SW =           0.0000          SYSTEM LOSSES SW =           0.0000

               TOTAL OUT =   951679488.0000                 TOTAL OUT =          11.2200

                IN - OUT =           0.0000                  IN - OUT =           0.0000

     PERCENT DISCREPANCY =           0.00         PERCENT DISCREPANCY =           0.00



1
  VOLUMETRIC BUDGET FOR ENTIRE MODEL AT END OF TIME STEP   30, STRESS PERIOD  22
  ------------------------------------------------------------------------------

     CUMULATIVE VOLUMES      L**3       RATES FOR THIS TIME STEP      L**3/T
     ------------------                 ------------------------

           IN:                                      IN:
           ---                                      ---
             STORAGE     =  1129788544.0000               STORAGE     =          18.5938
       CONSTANT HEAD     =           0.0000         CONSTANT HEAD     =           0.0000
     HEAD DEP BOUNDS     =    15789579.0000       HEAD DEP BOUNDS     =           0.2857
      STREAM LEAKAGE     =   693053056.0000        STREAM LEAKAGE     =          11.7688
        UZF RECHARGE     =   120000344.0000          UZF RECHARGE     =          26.4958
               GW ET     =           0.0000                 GW ET     =           0.0000
     SURFACE LEAKAGE     =           0.0000       SURFACE LEAKAGE     =           0.0000
           AG WELLS      =           0.0000             AG WELLS      =           0.0000

                TOTAL IN =  1958631552.0000                  TOTAL IN =          57.1441

          OUT:                                     OUT:
          ----                                     ----
             STORAGE     =   400982944.0000               STORAGE     =          34.9688
       CONSTANT HEAD     =           0.0000         CONSTANT HEAD     =           0.0000
     HEAD DEP BOUNDS     =    16296798.0000       HEAD DEP BOUNDS     =           0.2911
      STREAM LEAKAGE     =   572142272.0000        STREAM LEAKAGE     =          10.6636
        UZF RECHARGE     =           0.0000          UZF RECHARGE     =           0.0000
               GW ET     =    17516984.0000                 GW ET     =           0.0000
     SURFACE LEAKAGE     =           0.0000       SURFACE LEAKAGE     =           0.0000
           AG WELLS      =   951679488.0000             AG WELLS      =          11.2200

               TOTAL OUT =  1958618496.0000                 TOTAL OUT =          57.1435

                IN - OUT =       13056.0000                  IN - OUT =       6.2943E-04

     PERCENT DISCREPANCY =           0.00         PERCENT DISCREPANCY =           0.00






         TIME SUMMARY AT END OF TIME STEP   30 IN STRESS PERIOD   22
                    SECONDS     MINUTES      HOURS       DAYS        YEARS
                    -----------------------------------------------------------
   TIME STEP LENGTH  87667.      1461.1      24.352      1.0147     2.77799E-03
 STRESS PERIOD TIME 2.63000E+06  43833.      730.56      30.440     8.33397E-02
         TOTAL TIME 5.53166E+07 9.21944E+05  15366.      640.24      1.7529    
1
1
                            STRESS PERIOD NO.   23, LENGTH =   2630000.    
                            -----------------------------------------------

                              NUMBER OF TIME STEPS =    30

                               MULTIPLIER FOR DELT =     1.000

                            INITIAL TIME STEP SIZE =   87666.66    

 REUSING NON-PARAMETER GHB CELLS FROM LAST STRESS PERIOD

      2 GHB CELLS

 REUSING STREAM SEGMENT DATA FROM LAST STRESS PERIOD



            AREAL INFILTRATION RATE
 READING ON UNIT   19 WITH FORMAT: (FREE)              

            1           2           3           4           5           6           7           8           9          10
 ........................................................................................................................
   1   1.0000E-10  2.0000E-10   0.000       0.000       0.000       0.000       0.000       0.000       0.000       0.000    
   2   2.0000E-10  1.0000E-10  2.0000E-10   0.000       0.000      8.0000E-10  8.0000E-10  5.0000E-10   0.000       0.000    
   3    0.000      5.0000E-10  1.0000E-10  1.0000E-10  8.0000E-10  8.0000E-10  5.0000E-10  5.0000E-10   0.000       0.000    
   4   8.0000E-10  5.0000E-10  1.0000E-10  1.0000E-10  1.0000E-10  1.0000E-10  1.0000E-10  1.0000E-10  2.0000E-10   0.000    
   5   8.0000E-10  5.0000E-10  1.0000E-10  1.0000E-10  1.0000E-10  1.0000E-10  1.0000E-10  1.0000E-10  1.0000E-10  1.0000E-10
   6   8.0000E-10  5.0000E-10  5.0000E-10  2.0000E-10  2.0000E-10  1.0000E-10  1.0000E-10  1.0000E-10  1.0000E-10  5.0000E-10
   7   8.0000E-10  5.0000E-10  5.0000E-10  2.0000E-10  2.0000E-10  1.0000E-10  1.0000E-10  2.0000E-10  2.0000E-10   0.000    
   8    0.000      5.0000E-10  5.0000E-10  2.0000E-10  2.0000E-10  1.0000E-10  1.0000E-10  2.0000E-10  5.0000E-10   0.000    
   9    0.000      5.0000E-10  5.0000E-10  2.0000E-10  2.0000E-10  1.0000E-10  1.0000E-10  2.0000E-10  5.0000E-10   0.000    
  10    0.000      5.0000E-10  5.0000E-10  2.0000E-10  2.0000E-10  1.0000E-10  1.0000E-10  2.0000E-10  5.0000E-10  8.0000E-10
  11    0.000      1.0000E-10  1.0000E-10  1.0000E-10  1.0000E-10  1.0000E-10  1.0000E-10  2.0000E-10  5.0000E-10   0.000    
  12   1.0000E-10  1.0000E-10  1.0000E-10  1.0000E-10  1.0000E-10  1.0000E-10  1.0000E-10  1.0000E-10  2.0000E-10   0.000    
  13   1.0000E-10  1.0000E-10  2.0000E-10  2.0000E-10  2.0000E-10  2.0000E-10  2.0000E-10  1.0000E-10  1.0000E-10   0.000    
  14    0.000      2.0000E-10  5.0000E-10  5.0000E-10  5.0000E-10  5.0000E-10  5.0000E-10  2.0000E-10  1.0000E-10   0.000    
  15    0.000       0.000      8.0000E-10  8.0000E-10  8.0000E-10  8.0000E-10   0.000       0.000       0.000       0.000    

                  ET RATE =  5.000000E-09

 USING ET EXTINCTION DEPTH FROM PREVIOUS STRESS PERIOD. CURRENT PERIOD IS:      23

 USING EXTINCTION WATER CONTENT FROM PREVIOUS STRESS PERIOD. CURRENT PERIOD IS:      23

 USING AIR ENTRY PRESSURE FROM PREVIOUS STRESS PERIOD. CURRENT PERIOD IS:      23

 USING ROOT PRESSURE HEAD FROM PREVIOUS STRESS PERIOD. CURRENT PERIOD IS:      23

 USING ROOT ACTIVITY FROM PREVIOUS STRESS PERIOD. CURRENT PERIOD IS:      23

 PROCESSING AG STRESS PERIOD DATA

 READING AG STRESS PERIOD DATA

 READING IRRIGATION WELL

 END PROCESSING AG STRESS PERIOD DATA OPTIONS
 
 SOLVING FOR HEAD 
                                                   Max.-Head-Change                         Max.-Flux-Residual
  Residual-Control   Outer-Iter.   Inner-Iter.     Column Row Layer    Maximum-Head-Change  Column Row Layer    Maximum-Flux-Residual          L2-NORM 
          0                 1           2             4    7     1       0.1672196917E+00       4    7    1         0.8792003287E+01      0.1705654926E+02
          0                 2           2             4    7     1      -0.1618278932E-01       4    7    1        -0.8787543792E+00      0.1589498521E+01
          0                 3           2             4    7     1       0.1101155741E-02       4    7    1         0.6146632716E-01      0.1111838937E+00
          0                 4           1             4    7     1      -0.4376131393E-04       4    7    1        -0.2510838198E-02      0.4541934002E-02

    ------------------------------------------------
       NWT REQUIRED            4 OUTER ITERATIONS 
       AND A TOTAL OF          7 INNER ITERATIONS.
    ------------------------------------------------

 NO OUTPUT CONTROL FOR STRESS PERIOD   23   TIME STEP    1
 
 SOLVING FOR HEAD 
                                                   Max.-Head-Change                         Max.-Flux-Residual
  Residual-Control   Outer-Iter.   Inner-Iter.     Column Row Layer    Maximum-Head-Change  Column Row Layer    Maximum-Flux-Residual          L2-NORM 
          0                 1           2             4    7     1       0.1652657545E+00       4    7    1         0.8692281784E+01      0.1675408250E+02
          0                 2           2             4    7     1      -0.1606759868E-01       4    7    1        -0.8687881618E+00      0.1674552551E+01
          0                 3           2             4    7     1       0.1093315297E-02       4    7    1         0.6076908847E-01      0.1171330894E+00
          0                 4           1             4    7     1      -0.4344950452E-04       4    7    1        -0.2482343144E-02      0.4784942442E-02

    ------------------------------------------------
       NWT REQUIRED            4 OUTER ITERATIONS 
       AND A TOTAL OF          7 INNER ITERATIONS.
    ------------------------------------------------

 NO OUTPUT CONTROL FOR STRESS PERIOD   23   TIME STEP    2
 
 SOLVING FOR HEAD 
                                                   Max.-Head-Change                         Max.-Flux-Residual
  Residual-Control   Outer-Iter.   Inner-Iter.     Column Row Layer    Maximum-Head-Change  Column Row Layer    Maximum-Flux-Residual          L2-NORM 
          0                 1           2             4    7     1       0.1632148546E+00       4    7    1         0.8586774317E+01      0.1646715901E+02
          0                 2           2             4    6     1      -0.1349057731E-01       4    6    1        -0.7552408420E+00      0.1487226502E+01
          0                 3           2             4    7     1       0.2717064979E-02       4    7    1         0.1459189089E+00      0.1763777385E+00
          0                 4           1             4    7     1       0.7263323092E-03       4    7    1         0.3961175740E-01      0.3989597040E-01
          0                 5           1             4    7     1       0.1941643939E-03       4    7    1         0.1056582201E-01      0.1056747810E-01
          0                 6           1             4    7     1       0.5190437705E-04       4    7    1         0.2824515038E-02      0.2824691579E-02

    ------------------------------------------------
       NWT REQUIRED            6 OUTER ITERATIONS 
       AND A TOTAL OF          9 INNER ITERATIONS.
    ------------------------------------------------

 NO OUTPUT CONTROL FOR STRESS PERIOD   23   TIME STEP    3
 
 SOLVING FOR HEAD 
                                                   Max.-Head-Change                         Max.-Flux-Residual
  Residual-Control   Outer-Iter.   Inner-Iter.     Column Row Layer    Maximum-Head-Change  Column Row Layer    Maximum-Flux-Residual          L2-NORM 
          0                 1           2             4    7     1       0.1597306371E+00       4    7    1         0.8402052249E+01      0.1618001123E+02
          0                 2           2             4    7     1       0.3743237381E-01       4    7    1         0.2005428163E+01      0.3151720546E+01
          0                 3           2             4    8     1       0.8038596376E-02       4    8    1         0.4383208453E+00      0.6825680934E+00
          0                 4           2             4    8     1       0.2158704369E-02       4    8    1         0.1169361706E+00      0.1742112853E+00
          0                 5           2             4    8     1       0.5797087969E-03       4    8    1         0.3145235928E-01      0.4653261518E-01
          0                 6           2             4    8     1       0.1556787441E-03       4    8    1         0.8444329363E-02      0.1245706649E-01
          0                 7           1             4    8     1       0.4180724029E-04       4    8    1         0.2267780775E-02      0.3336848587E-02

    ------------------------------------------------
       NWT REQUIRED            7 OUTER ITERATIONS 
       AND A TOTAL OF         13 INNER ITERATIONS.
    ------------------------------------------------

 NO OUTPUT CONTROL FOR STRESS PERIOD   23   TIME STEP    4
 
 SOLVING FOR HEAD 
                                                   Max.-Head-Change                         Max.-Flux-Residual
  Residual-Control   Outer-Iter.   Inner-Iter.     Column Row Layer    Maximum-Head-Change  Column Row Layer    Maximum-Flux-Residual          L2-NORM 
          0                 1           2             4    7     1       0.1567179980E+00       4    7    1         0.8244675631E+01      0.1582706172E+02
          0                 2           2             4    6     1       0.3754341603E-01       4    6    1         0.2041900983E+01      0.3191069140E+01
          0                 3           2             4    6     1       0.1000964121E-01       4    6    1         0.5467969277E+00      0.5860023567E+00
          0                 4           2             4    6     1       0.2668652249E-02       4    6    1         0.1454404668E+00      0.1461437635E+00
          0                 5           2             4    6     1       0.7114850691E-03       4    6    1         0.3880219464E-01      0.3880629100E-01
          0                 6           2             4    6     1       0.1896878976E-03       4    6    1         0.1034390524E-01      0.1034406695E-01
          0                 7           1             4    6     1       0.5057239093E-04       4    6    1         0.2757816953E-02      0.2757848815E-02

    ------------------------------------------------
       NWT REQUIRED            7 OUTER ITERATIONS 
       AND A TOTAL OF         13 INNER ITERATIONS.
    ------------------------------------------------

 NO OUTPUT CONTROL FOR STRESS PERIOD   23   TIME STEP    5
 
 SOLVING FOR HEAD 
                                                   Max.-Head-Change                         Max.-Flux-Residual
  Residual-Control   Outer-Iter.   Inner-Iter.     Column Row Layer    Maximum-Head-Change  Column Row Layer    Maximum-Flux-Residual          L2-NORM 
          0                 1           2             4    7     1       0.1566051737E+00       4    7    1         0.8248724249E+01      0.1550118075E+02
          0                 2           2             4    7     1      -0.1515886954E-01       4    7    1        -0.8244576848E+00      0.1447714345E+01
          0                 3           2             4    7     1       0.1031484321E-02       4    7    1         0.5766848711E-01      0.1012671005E+00
          0                 4           1             4    7     1      -0.4099257020E-04       4    7    1        -0.2355704945E-02      0.4136878657E-02

    ------------------------------------------------
       NWT REQUIRED            4 OUTER ITERATIONS 
       AND A TOTAL OF          7 INNER ITERATIONS.
    ------------------------------------------------

 NO OUTPUT CONTROL FOR STRESS PERIOD   23   TIME STEP    6
 
 SOLVING FOR HEAD 
                                                   Max.-Head-Change                         Max.-Flux-Residual
  Residual-Control   Outer-Iter.   Inner-Iter.     Column Row Layer    Maximum-Head-Change  Column Row Layer    Maximum-Flux-Residual          L2-NORM 
          0                 1           2             4    7     1       0.1545220009E+00       4    7    1         0.8140384305E+01      0.1526190158E+02
          0                 2           2             4    7     1      -0.1502310998E-01       4    7    1        -0.8136292932E+00      0.1525424328E+01
          0                 3           2             4    7     1       0.1022244299E-02       4    7    1         0.5691094187E-01      0.1067026156E+00
          0                 4           1             4    7     1      -0.4062515532E-04       4    7    1        -0.2324747374E-02      0.4358913874E-02

    ------------------------------------------------
       NWT REQUIRED            4 OUTER ITERATIONS 
       AND A TOTAL OF          7 INNER ITERATIONS.
    ------------------------------------------------

 NO OUTPUT CONTROL FOR STRESS PERIOD   23   TIME STEP    7
 
 SOLVING FOR HEAD 
                                                   Max.-Head-Change                         Max.-Flux-Residual
  Residual-Control   Outer-Iter.   Inner-Iter.     Column Row Layer    Maximum-Head-Change  Column Row Layer    Maximum-Flux-Residual          L2-NORM 
          0                 1           2             4    7     1       0.1513466425E+00       4    7    1         0.8028586958E+01      0.1388999499E+02
          0                 2           2             4    7     1       0.3273373802E-01       4    7    1         0.1802910633E+01      0.2129310398E+01
          0                 3           2             4    7     1       0.8735660404E-02       4    7    1         0.4747922403E+00      0.4815231188E+00
          0                 4           1             4    7     1       0.2329813453E-02       4    7    1         0.1270774816E+00      0.1271082524E+00
          0                 5           1             4    7     1       0.6213647145E-03       4    7    1         0.3387329222E-01      0.3387433532E-01
          0                 6           1             4    7     1       0.1657189352E-03       4    7    1         0.9034825182E-02      0.9034913410E-02
          0                 7           1             4    7     1       0.4419749851E-04       4    7    1         0.2409569789E-02      0.2409598918E-02

    ------------------------------------------------
       NWT REQUIRED            7 OUTER ITERATIONS 
       AND A TOTAL OF         10 INNER ITERATIONS.
    ------------------------------------------------

 NO OUTPUT CONTROL FOR STRESS PERIOD   23   TIME STEP    8
 
 SOLVING FOR HEAD 
                                                   Max.-Head-Change                         Max.-Flux-Residual
  Residual-Control   Outer-Iter.   Inner-Iter.     Column Row Layer    Maximum-Head-Change  Column Row Layer    Maximum-Flux-Residual          L2-NORM 
          0                 1           2             4    7     1       0.1438807077E+00       4    7    1         0.7703272668E+01      0.1232520798E+02
          0                 2           2             4    6     1      -0.1210681789E-01       4    6    1        -0.6730885790E+00      0.1006290395E+01
          0                 3           2             4    6     1       0.8238183885E-03       4    6    1         0.4719979720E-01      0.7344582368E-01
          0                 4           1             4    7     1       0.3423206110E-04       4    7    1         0.2013793961E-02      0.3420751550E-02

    ------------------------------------------------
       NWT REQUIRED            4 OUTER ITERATIONS 
       AND A TOTAL OF          7 INNER ITERATIONS.
    ------------------------------------------------

 NO OUTPUT CONTROL FOR STRESS PERIOD   23   TIME STEP    9
 
 SOLVING FOR HEAD 
                                                   Max.-Head-Change                         Max.-Flux-Residual
  Residual-Control   Outer-Iter.   Inner-Iter.     Column Row Layer    Maximum-Head-Change  Column Row Layer    Maximum-Flux-Residual          L2-NORM 
          0                 1           2             4    7     1       0.1388335614E+00       4    7    1         0.7425461205E+01      0.1204338532E+02
          0                 2           2             4    6     1       0.2070631304E-01       4    6    1         0.1149488967E+01      0.1526982953E+01
          0                 3           2             4    6     1       0.5520162506E-02       4    6    1         0.2996420488E+00      0.3079377256E+00
          0                 4           2             4    6     1       0.1471645466E-02       4    6    1         0.8031134750E-01      0.8035209286E-01
          0                 5           2             4    6     1       0.3923324946E-03       4    6    1         0.2139336675E-01      0.2139420725E-01
          0                 6           1             4    6     1       0.1045936850E-03       4    6    1         0.5703644521E-02      0.5703801122E-02
          0                 7           1             4    6     1       0.2788410150E-04       4    6    1         0.1520545624E-02      0.1520590254E-02

    ------------------------------------------------
       NWT REQUIRED            7 OUTER ITERATIONS 
       AND A TOTAL OF         12 INNER ITERATIONS.
    ------------------------------------------------

 NO OUTPUT CONTROL FOR STRESS PERIOD   23   TIME STEP   10
 
 SOLVING FOR HEAD 
                                                   Max.-Head-Change                         Max.-Flux-Residual
  Residual-Control   Outer-Iter.   Inner-Iter.     Column Row Layer    Maximum-Head-Change  Column Row Layer    Maximum-Flux-Residual          L2-NORM 
          0                 1           2             4    7     1       0.1354914407E+00       4    7    1         0.7245318546E+01      0.1066346124E+02
          0                 2           2             4    6     1       0.2816410641E-01       4    6    1         0.1548869965E+01      0.1768274931E+01
          0                 3           2             4    6     1      -0.2738211616E-02       4    6    1        -0.1544573488E+00      0.1658362850E+00
          0                 4           2             4    6     1       0.1863269147E-03       4    6    1         0.1078031980E-01      0.1107454567E-01
          0                 5           1             4    6     1      -0.7405180292E-05       4    6    1        -0.4394383595E-03      0.4410231328E-03

    ------------------------------------------------
       NWT REQUIRED            5 OUTER ITERATIONS 
       AND A TOTAL OF          9 INNER ITERATIONS.
    ------------------------------------------------

 NO OUTPUT CONTROL FOR STRESS PERIOD   23   TIME STEP   11
 
 SOLVING FOR HEAD 
                                                   Max.-Head-Change                         Max.-Flux-Residual
  Residual-Control   Outer-Iter.   Inner-Iter.     Column Row Layer    Maximum-Head-Change  Column Row Layer    Maximum-Flux-Residual          L2-NORM 
          0                 1           2             4    7     1       0.1322255018E+00       4    7    1         0.7069169655E+01      0.1038410186E+02
          0                 2           2             4    7     1      -0.1285569180E-01       4    7    1        -0.7065825532E+00      0.1037930612E+01
          0                 3           2             4    7     1       0.8747700440E-03       4    7    1         0.4942374145E-01      0.7260567036E-01
          0                 4           1             4    7     1      -0.3476499076E-04       4    7    1        -0.2018941456E-02      0.2966228656E-02

    ------------------------------------------------
       NWT REQUIRED            4 OUTER ITERATIONS 
       AND A TOTAL OF          7 INNER ITERATIONS.
    ------------------------------------------------

 NO OUTPUT CONTROL FOR STRESS PERIOD   23   TIME STEP   12
 
 SOLVING FOR HEAD 
                                                   Max.-Head-Change                         Max.-Flux-Residual
  Residual-Control   Outer-Iter.   Inner-Iter.     Column Row Layer    Maximum-Head-Change  Column Row Layer    Maximum-Flux-Residual          L2-NORM 
          0                 1           2             4    6     1       0.1101167472E+00       4    6    1         0.5941559419E+01      0.7829019785E+01
          0                 2           2             4    6     1      -0.1070607924E-01       4    6    1        -0.5938674552E+00      0.7825627924E+00
          0                 3           2             4    6     1       0.7285067938E-03       4    6    1         0.4153997221E-01      0.5474492480E-01
          0                 4           1             4    6     1      -0.2895265366E-04       4    6    1        -0.1696911120E-02      0.2236736577E-02

    ------------------------------------------------
       NWT REQUIRED            4 OUTER ITERATIONS 
       AND A TOTAL OF          7 INNER ITERATIONS.
    ------------------------------------------------

 NO OUTPUT CONTROL FOR STRESS PERIOD   23   TIME STEP   13
 
 SOLVING FOR HEAD 
                                                   Max.-Head-Change                         Max.-Flux-Residual
  Residual-Control   Outer-Iter.   Inner-Iter.     Column Row Layer    Maximum-Head-Change  Column Row Layer    Maximum-Flux-Residual          L2-NORM 
          0                 1           2             4    6     1       0.1061241604E+00       4    6    1         0.5721459482E+01      0.7648569103E+01
          0                 2           2             4    6     1      -0.1031788639E-01       4    6    1        -0.5718671419E+00      0.7645260372E+00
          0                 3           2             4    6     1       0.7020915952E-03       4    6    1         0.4000107259E-01      0.5348328576E-01
          0                 4           1             4    6     1      -0.2790282937E-04       4    6    1        -0.1634045284E-02      0.2185202072E-02

    ------------------------------------------------
       NWT REQUIRED            4 OUTER ITERATIONS 
       AND A TOTAL OF          7 INNER ITERATIONS.
    ------------------------------------------------

 NO OUTPUT CONTROL FOR STRESS PERIOD   23   TIME STEP   14
 
 SOLVING FOR HEAD 
                                                   Max.-Head-Change                         Max.-Flux-Residual
  Residual-Control   Outer-Iter.   Inner-Iter.     Column Row Layer    Maximum-Head-Change  Column Row Layer    Maximum-Flux-Residual          L2-NORM 
          0                 1           2             4    6     1       0.1023586263E+00       4    6    1         0.5514018952E+01      0.7480617689E+01
          0                 2           2             4    6     1      -0.9951769953E-02       4    6    1        -0.5511322420E+00      0.7477386548E+00
          0                 3           2             4    6     1       0.6771786269E-03       4    6    1         0.3855068787E-01      0.5230905662E-01
          0                 4           1             4    6     1      -0.2691270944E-04       4    6    1        -0.1574795441E-02      0.2137230560E-02

    ------------------------------------------------
       NWT REQUIRED            4 OUTER ITERATIONS 
       AND A TOTAL OF          7 INNER ITERATIONS.
    ------------------------------------------------

 NO OUTPUT CONTROL FOR STRESS PERIOD   23   TIME STEP   15
 
 SOLVING FOR HEAD 
                                                   Max.-Head-Change                         Max.-Flux-Residual
  Residual-Control   Outer-Iter.   Inner-Iter.     Column Row Layer    Maximum-Head-Change  Column Row Layer    Maximum-Flux-Residual          L2-NORM 
          0                 1           2             4    6     1       0.9880459098E-01       4    6    1         0.5318365186E+01      0.7323863635E+01
          0                 2           2             4    6     1      -0.9606217608E-02       4    6    1        -0.5315755280E+00      0.7320705410E+00
          0                 3           2             4    6     1       0.6536649800E-03       4    6    1         0.3718271648E-01      0.5121309306E-01
          0                 4           1             4    6     1      -0.2597820317E-04       4    6    1        -0.1518912304E-02      0.2092459058E-02

    ------------------------------------------------
       NWT REQUIRED            4 OUTER ITERATIONS 
       AND A TOTAL OF          7 INNER ITERATIONS.
    ------------------------------------------------

 NO OUTPUT CONTROL FOR STRESS PERIOD   23   TIME STEP   16
 
 SOLVING FOR HEAD 
                                                   Max.-Head-Change                         Max.-Flux-Residual
  Residual-Control   Outer-Iter.   Inner-Iter.     Column Row Layer    Maximum-Head-Change  Column Row Layer    Maximum-Flux-Residual          L2-NORM 
          0                 1           2             4    7     1       0.4483420180E-01       4    7    1         0.2381287166E+01      0.5047913632E+01
          0                 2           2             4    7     1      -0.4358854210E-02       4    7    1        -0.2380042652E+00      0.5046142283E+00
          0                 3           2             4    7     1       0.2966000041E-03       4    7    1         0.1664784522E-01      0.3530568617E-01
          0                 4           1             4    7     1      -0.1178734201E-04       4    7    1        -0.6800522569E-03      0.1442827724E-02

    ------------------------------------------------
       NWT REQUIRED            4 OUTER ITERATIONS 
       AND A TOTAL OF          7 INNER ITERATIONS.
    ------------------------------------------------

 NO OUTPUT CONTROL FOR STRESS PERIOD   23   TIME STEP   17
 
 SOLVING FOR HEAD 
                                                   Max.-Head-Change                         Max.-Flux-Residual
  Residual-Control   Outer-Iter.   Inner-Iter.     Column Row Layer    Maximum-Head-Change  Column Row Layer    Maximum-Flux-Residual          L2-NORM 
          0                 1           2             4    7     1       0.4388871841E-01       4    7    1         0.2329491015E+01      0.4971327395E+01
          0                 2           2             4    7     1      -0.4266930173E-02       4    7    1        -0.2328271881E+00      0.4969575986E+00
          0                 3           2             4    7     1       0.2903448753E-03       4    7    1         0.1628571325E-01      0.3476991691E-01
          0                 4           1             4    7     1      -0.1153874480E-04       4    7    1        -0.6652588763E-03      0.1420927243E-02

    ------------------------------------------------
       NWT REQUIRED            4 OUTER ITERATIONS 
       AND A TOTAL OF          7 INNER ITERATIONS.
    ------------------------------------------------

 NO OUTPUT CONTROL FOR STRESS PERIOD   23   TIME STEP   18
 
 SOLVING FOR HEAD 
                                                   Max.-Head-Change                         Max.-Flux-Residual
  Residual-Control   Outer-Iter.   Inner-Iter.     Column Row Layer    Maximum-Head-Change  Column Row Layer    Maximum-Flux-Residual          L2-NORM 
          0                 1           2             4    7     1       0.4299090760E-01       4    7    1         0.2280366899E+01      0.4898160701E+01
          0                 2           2             4    7     1      -0.4179641146E-02       4    7    1        -0.2279171879E+00      0.4896428792E+00
          0                 3           2             4    7     1       0.2844051491E-03       4    7    1         0.1594226339E-01      0.3425809251E-01
          0                 4           1             4    7     1      -0.1130268291E-04       4    7    1        -0.6512286800E-03      0.1400000480E-02

    ------------------------------------------------
       NWT REQUIRED            4 OUTER ITERATIONS 
       AND A TOTAL OF          7 INNER ITERATIONS.
    ------------------------------------------------

 NO OUTPUT CONTROL FOR STRESS PERIOD   23   TIME STEP   19
 
 SOLVING FOR HEAD 
                                                   Max.-Head-Change                         Max.-Flux-Residual
  Residual-Control   Outer-Iter.   Inner-Iter.     Column Row Layer    Maximum-Head-Change  Column Row Layer    Maximum-Flux-Residual          L2-NORM 
          0                 1           2             4    7     1       0.4213721395E-01       4    7    1         0.2233714529E+01      0.4828112065E+01
          0                 2           2             4    7     1      -0.4096641452E-02       4    7    1        -0.2232542455E+00      0.4826398106E+00
          0                 3           2             4    7     1       0.2787573026E-03       4    7    1         0.1561609525E-01      0.3376817339E-01
          0                 4           1             4    7     1      -0.1107822150E-04       4    7    1        -0.6379044976E-03      0.1379991829E-02

    ------------------------------------------------
       NWT REQUIRED            4 OUTER ITERATIONS 
       AND A TOTAL OF          7 INNER ITERATIONS.
    ------------------------------------------------

 NO OUTPUT CONTROL FOR STRESS PERIOD   23   TIME STEP   20
 
 SOLVING FOR HEAD 
                                                   Max.-Head-Change                         Max.-Flux-Residual
  Residual-Control   Outer-Iter.   Inner-Iter.     Column Row Layer    Maximum-Head-Change  Column Row Layer    Maximum-Flux-Residual          L2-NORM 
          0                 1           2             4    7     1       0.4132463606E-01       4    7    1         0.2189364159E+01      0.4760904291E+01
          0                 2           2             4    7     1      -0.4017639279E-02       4    7    1        -0.2188213942E+00      0.4759190994E+00
          0                 3           2             4    7     1       0.2733814778E-03       4    7    1         0.1530602203E-01      0.3329769722E-01
          0                 4           1             4    7     1      -0.1086457092E-04       4    7    1        -0.6252377766E-03      0.1360725007E-02

    ------------------------------------------------
       NWT REQUIRED            4 OUTER ITERATIONS 
       AND A TOTAL OF          7 INNER ITERATIONS.
    ------------------------------------------------

 NO OUTPUT CONTROL FOR STRESS PERIOD   23   TIME STEP   21
 
 SOLVING FOR HEAD 
                                                   Max.-Head-Change                         Max.-Flux-Residual
  Residual-Control   Outer-Iter.   Inner-Iter.     Column Row Layer    Maximum-Head-Change  Column Row Layer    Maximum-Flux-Residual          L2-NORM 
          0                 1           2             4    7     1       0.4055002644E-01       4    7    1         0.2147138275E+01      0.4696306523E+01
          0                 2           2             4    7     1      -0.3942328608E-02       4    7    1        -0.2146008912E+00      0.4694629182E+00
          0                 3           2             4    7     1       0.2682568522E-03       4    7    1         0.1501080260E-01      0.3284601285E-01
          0                 4           1             4    7     1      -0.1066090525E-04       4    7    1        -0.6131779205E-03      0.1342267856E-02

    ------------------------------------------------
       NWT REQUIRED            4 OUTER ITERATIONS 
       AND A TOTAL OF          7 INNER ITERATIONS.
    ------------------------------------------------

 NO OUTPUT CONTROL FOR STRESS PERIOD   23   TIME STEP   22
 
 SOLVING FOR HEAD 
                                                   Max.-Head-Change                         Max.-Flux-Residual
  Residual-Control   Outer-Iter.   Inner-Iter.     Column Row Layer    Maximum-Head-Change  Column Row Layer    Maximum-Flux-Residual          L2-NORM 
          0                 1           2             4    7     1       0.3981088820E-01       4    7    1         0.2106895583E+01      0.4634098616E+01
          0                 2           2             4    7     1      -0.3870466678E-02       4    7    1        -0.2105786137E+00      0.4632438885E+00
          0                 3           2             4    7     1       0.2633669046E-03       4    7    1         0.1472944903E-01      0.3241086310E-01
          0                 4           1             4    7     1      -0.1046656525E-04       4    7    1        -0.6016844695E-03      0.1324493548E-02

    ------------------------------------------------
       NWT REQUIRED            4 OUTER ITERATIONS 
       AND A TOTAL OF          7 INNER ITERATIONS.
    ------------------------------------------------

 NO OUTPUT CONTROL FOR STRESS PERIOD   23   TIME STEP   23
 
 SOLVING FOR HEAD 
                                                   Max.-Head-Change                         Max.-Flux-Residual
  Residual-Control   Outer-Iter.   Inner-Iter.     Column Row Layer    Maximum-Head-Change  Column Row Layer    Maximum-Flux-Residual          L2-NORM 
          0                 1           2             4    7     1       0.3910466021E-01       4    7    1         0.2068492025E+01      0.4574084064E+01
          0                 2           2             4    7     1      -0.3801804479E-02       4    7    1        -0.2067401627E+00      0.4572441196E+00
          0                 3           2             4    7     1       0.2586946914E-03       4    7    1         0.1446095416E-01      0.3199104513E-01
          0                 4           1             4    7     1      -0.1028087917E-04       4    7    1        -0.5907163231E-03      0.1307348901E-02

    ------------------------------------------------
       NWT REQUIRED            4 OUTER ITERATIONS 
       AND A TOTAL OF          7 INNER ITERATIONS.
    ------------------------------------------------

 NO OUTPUT CONTROL FOR STRESS PERIOD   23   TIME STEP   24
 
 SOLVING FOR HEAD 
                                                   Max.-Head-Change                         Max.-Flux-Residual
  Residual-Control   Outer-Iter.   Inner-Iter.     Column Row Layer    Maximum-Head-Change  Column Row Layer    Maximum-Flux-Residual          L2-NORM 
          0                 1           2             4    7     1       0.3842912513E-01       4    7    1         0.2031802110E+01      0.4516102475E+01
          0                 2           2             4    7     1      -0.3736126430E-02       4    7    1        -0.2030729951E+00      0.4514476189E+00
          0                 3           2             4    7     1       0.2542255426E-03       4    7    1         0.1420444057E-01      0.3158546605E-01
          0                 4           1             4    7     1      -0.1010326376E-04       4    7    1        -0.5802376345E-03      0.1290776626E-02

    ------------------------------------------------
       NWT REQUIRED            4 OUTER ITERATIONS 
       AND A TOTAL OF          7 INNER ITERATIONS.
    ------------------------------------------------

 NO OUTPUT CONTROL FOR STRESS PERIOD   23   TIME STEP   25
 
 SOLVING FOR HEAD 
                                                   Max.-Head-Change                         Max.-Flux-Residual
  Residual-Control   Outer-Iter.   Inner-Iter.     Column Row Layer    Maximum-Head-Change  Column Row Layer    Maximum-Flux-Residual          L2-NORM 
          0                 1           2             4    7     1       0.3778197975E-01       4    7    1         0.1996696270E+01      0.4459997183E+01
          0                 2           2             4    7     1      -0.3673208596E-02       4    7    1        -0.1995641602E+00      0.4458388038E+00
          0                 3           2             4    7     1       0.2499442198E-03       4    7    1         0.1395900233E-01      0.3119300298E-01
          0                 4           1             4    7     1      -0.9933113804E-05       4    7    1        -0.5702114172E-03      0.1274725025E-02

    ------------------------------------------------
       NWT REQUIRED            4 OUTER ITERATIONS 
       AND A TOTAL OF          7 INNER ITERATIONS.
    ------------------------------------------------

 NO OUTPUT CONTROL FOR STRESS PERIOD   23   TIME STEP   26
 
 SOLVING FOR HEAD 
                                                   Max.-Head-Change                         Max.-Flux-Residual
  Residual-Control   Outer-Iter.   Inner-Iter.     Column Row Layer    Maximum-Head-Change  Column Row Layer    Maximum-Flux-Residual          L2-NORM 
          0                 1           2             4    7     1       0.3716149573E-01       4    7    1         0.1963076994E+01      0.4405628982E+01
          0                 2           2             4    7     1      -0.3612882937E-02       4    7    1        -0.1962039113E+00      0.4404035323E+00
          0                 3           2             4    7     1       0.2458392876E-03       4    7    1         0.1372395765E-01      0.3081269250E-01
          0                 4           1             4    7     1      -0.9769973619E-05       4    7    1        -0.5606097675E-03      0.1259191636E-02

    ------------------------------------------------
       NWT REQUIRED            4 OUTER ITERATIONS 
       AND A TOTAL OF          7 INNER ITERATIONS.
    ------------------------------------------------

 NO OUTPUT CONTROL FOR STRESS PERIOD   23   TIME STEP   27
 
 SOLVING FOR HEAD 
                                                   Max.-Head-Change                         Max.-Flux-Residual
  Residual-Control   Outer-Iter.   Inner-Iter.     Column Row Layer    Maximum-Head-Change  Column Row Layer    Maximum-Flux-Residual          L2-NORM 
          0                 1           2             4    7     1       0.3656569114E-01       4    7    1         0.1930832762E+01      0.4352870568E+01
          0                 2           2             4    7     1      -0.3554956725E-02       4    7    1        -0.1929811018E+00      0.4350975793E+00
          0                 3           2             4    7     1       0.2418976321E-03       4    7    1         0.1349852688E-01      0.3044144103E-01
          0                 4           1             4    7     1      -0.9613323062E-05       4    7    1        -0.5514008708E-03      0.1244017984E-02

    ------------------------------------------------
       NWT REQUIRED            4 OUTER ITERATIONS 
       AND A TOTAL OF          7 INNER ITERATIONS.
    ------------------------------------------------

 NO OUTPUT CONTROL FOR STRESS PERIOD   23   TIME STEP   28
 
 SOLVING FOR HEAD 
                                                   Max.-Head-Change                         Max.-Flux-Residual
  Residual-Control   Outer-Iter.   Inner-Iter.     Column Row Layer    Maximum-Head-Change  Column Row Layer    Maximum-Flux-Residual          L2-NORM 
          0                 1           2             4    7     1       0.3599313978E-01       4    7    1         0.1899882726E+01      0.4301647074E+01
          0                 2           2             4    7     1      -0.3499290742E-02       4    7    1        -0.1898876506E+00      0.4299566672E+00
          0                 3           2             4    7     1       0.2381097794E-03       4    7    1         0.1328214467E-01      0.3008171982E-01
          0                 4           1             4    7     1      -0.9462785205E-05       4    7    1        -0.5425616337E-03      0.1229317091E-02

    ------------------------------------------------
       NWT REQUIRED            4 OUTER ITERATIONS 
       AND A TOTAL OF          7 INNER ITERATIONS.
    ------------------------------------------------

 NO OUTPUT CONTROL FOR STRESS PERIOD   23   TIME STEP   29
 
 SOLVING FOR HEAD 
                                                   Max.-Head-Change                         Max.-Flux-Residual
  Residual-Control   Outer-Iter.   Inner-Iter.     Column Row Layer    Maximum-Head-Change  Column Row Layer    Maximum-Flux-Residual          L2-NORM 
          0                 1           2             4    7     1       0.3544213606E-01       4    7    1         0.1870131058E+01      0.4251888041E+01
          0                 2           2             4    7     1      -0.3445721021E-02       4    7    1        -0.1869139794E+00      0.4250343294E+00
          0                 3           2             4    7     1       0.2344645716E-03       4    7    1         0.1307414105E-01      0.2973731385E-01
          0                 4           1             4    7     1      -0.9317916231E-05       4    7    1        -0.5340646617E-03      0.1215228036E-02

    ------------------------------------------------
       NWT REQUIRED            4 OUTER ITERATIONS 
       AND A TOTAL OF          7 INNER ITERATIONS.
    ------------------------------------------------

 NO OUTPUT CONTROL FOR STRESS PERIOD   23   TIME STEP   30



 STREAM LISTING     PERIOD     23   STEP       30

 LAYER ROW COL. STREAM  RCH.  FLOW INTO     FLOW TO   FLOW OUT OF   OVRLND.     DIRECT     STREAM       STREAM     STREAM     STREAM   STREAMBED  STREAMBED
                SEG.NO.  NO.  STRM. RCH.    AQUIFER    STRM. RCH.    RUNOFF     PRECIP       ET          HEAD       DEPTH      WIDTH   CONDCTNC.   GRADIENT

   1    1    1     1     1    2.2000E+01  2.3088E-01   2.1769E+01  0.000E+00  0.000E+00  0.000E+00  1.09418E+03  1.132E+00  1.242E+01  5.588E-02  1.377E+00
   1    2    2     1     2    2.1769E+01  3.5689E-01   2.1413E+01  0.000E+00  0.000E+00  0.000E+00  1.08919E+03  1.127E+00  1.235E+01  8.648E-02  1.376E+00
   1    3    3     1     3    2.1413E+01  3.0372E-01   2.1109E+01  0.000E+00  0.000E+00  0.000E+00  1.08354E+03  1.121E+00  1.228E+01  7.369E-02  1.374E+00
   1    3    4     1     4    2.1109E+01  2.7914E-01   2.0830E+01  0.000E+00  0.000E+00  0.000E+00  1.07852E+03  1.117E+00  1.222E+01  6.781E-02  1.372E+00
   1    4    5     2     1    1.8830E+01  3.1306E-01   1.8517E+01  0.000E+00  0.000E+00  0.000E+00  1.07295E+03  1.014E+00  1.200E+01  7.800E-02  1.338E+00
   1    5    6     2     2    1.8517E+01  2.4027E-01   1.8276E+01  0.000E+00  0.000E+00  0.000E+00  1.06751E+03  1.005E+00  1.200E+01  6.000E-02  1.335E+00
   1    6    6     2     3    1.8276E+01  2.3980E-01   1.8037E+01  0.000E+00  0.000E+00  0.000E+00  1.06279E+03  9.967E-01  1.200E+01  6.000E-02  1.332E+00
   1    7    6     2     4    1.8037E+01  2.3933E-01   1.7797E+01  0.000E+00  0.000E+00  0.000E+00  1.05806E+03  9.888E-01  1.200E+01  6.000E-02  1.330E+00
   1    8    6     2     5    1.7797E+01  2.3885E-01   1.7558E+01  0.000E+00  0.000E+00  0.000E+00  1.05334E+03  9.808E-01  1.200E+01  6.000E-02  1.327E+00
   1    3    5     3     1    2.0000E+00  2.8252E-01   1.7175E+00  0.000E+00  0.000E+00  0.000E+00  1.07555E+03  1.909E+00  9.636E+00  7.227E-02  1.955E+00
   1    3    6     3     2    1.7175E+00  2.4905E-01   1.4684E+00  0.000E+00  0.000E+00  0.000E+00  1.07264E+03  1.727E+00  8.909E+00  6.682E-02  1.864E+00
   1    3    7     3     3    1.4684E+00  1.9718E-01   1.2712E+00  0.000E+00  0.000E+00  0.000E+00  1.06987E+03  1.555E+00  8.218E+00  5.547E-02  1.777E+00
   1    4    8     3     4    1.2712E+00  2.2567E-01   1.0456E+00  0.000E+00  0.000E+00  0.000E+00  1.06682E+03  1.364E+00  7.455E+00  6.709E-02  1.682E+00
   1    5    8     3     5    1.0456E+00  1.5790E-01   8.8768E-01  0.000E+00  0.000E+00  0.000E+00  1.06362E+03  1.164E+00  6.655E+00  4.991E-02  1.582E+00
   1    6    8     3     6    8.8768E-01  5.5980E-02   8.3170E-01  0.000E+00  0.000E+00  0.000E+00  1.06158E+03  1.036E+00  6.145E+00  1.844E-02  1.518E+00
   1    5   10     4     1    1.0000E+01  9.0919E-02   9.9091E+00  0.000E+00  0.000E+00  0.000E+00  1.07836E+03  6.368E-01  1.000E+01  2.500E-02  1.212E+00
   1    5    9     4     2    9.9091E+00  1.8158E-01   9.7275E+00  0.000E+00  0.000E+00  0.000E+00  1.07154E+03  6.315E-01  1.000E+01  5.000E-02  1.211E+00
   1    6    8     4     3    9.7275E+00  1.2689E-01   9.6006E+00  0.000E+00  0.000E+00  0.000E+00  1.06381E+03  6.256E-01  1.000E+01  3.500E-02  1.209E+00
   1    6    8     5     1    1.0432E+01  2.2686E-01   1.0205E+01  0.000E+00  0.000E+00  0.000E+00  1.05868E+03  6.790E-01  1.542E+01  6.166E-02  1.226E+00
   1    7    7     5     2    1.0205E+01  2.7894E-01   9.9265E+00  0.000E+00  0.000E+00  0.000E+00  1.05417E+03  6.732E-01  1.519E+01  7.594E-02  1.224E+00
   1    8    7     5     3    9.9265E+00  1.9221E-01   9.7343E+00  0.000E+00  0.000E+00  0.000E+00  1.04992E+03  6.676E-01  1.497E+01  5.241E-02  1.223E+00
   1    8    6     5     4    9.7343E+00  1.3577E-01   9.5985E+00  0.000E+00  0.000E+00  0.000E+00  1.04691E+03  6.637E-01  1.482E+01  3.706E-02  1.221E+00
   1    9    6     6     1    2.7157E+01  2.5677E-01   2.6900E+01  0.000E+00  0.000E+00  0.000E+00  1.04401E+03  1.280E+00  1.200E+01  6.000E-02  1.427E+00
   1   10    7     6     2    2.6900E+01  2.5634E-01   2.6644E+01  0.000E+00  0.000E+00  0.000E+00  1.03945E+03  1.272E+00  1.200E+01  6.000E-02  1.424E+00
   1   11    7     6     3    2.6644E+01  2.5590E-01   2.6388E+01  0.000E+00  0.000E+00  0.000E+00  1.03490E+03  1.265E+00  1.200E+01  6.000E-02  1.422E+00
   1   12    7     6     4    2.6388E+01  2.5546E-01   2.6132E+01  0.000E+00  0.000E+00  0.000E+00  1.03035E+03  1.258E+00  1.200E+01  6.000E-02  1.419E+00
   1   13    7     6     5    2.6132E+01  3.5952E-03   2.6129E+01  0.000E+00  0.000E+00  0.000E+00  1.02716E+03  1.254E+00  1.200E+01  2.400E-02  4.993E-02
   1   14    9     7     1    1.5000E+02  1.3357E+00   1.4866E+02  0.000E+00  0.000E+00  0.000E+00  1.03987E+03  2.288E+00  5.529E+01  5.593E-01  7.961E-01
   1   13    8     7     2    1.4866E+02  1.8457E+00   1.4682E+02  0.000E+00  0.000E+00  0.000E+00  1.03478E+03  2.279E+00  5.526E+01  6.148E-01  1.001E+00
   1   13    7     7     3    1.4682E+02  1.4947E+00   1.4532E+02  0.000E+00  0.000E+00  0.000E+00  1.02969E+03  2.270E+00  5.522E+01  5.584E-01  8.922E-01
   1   13    6     8     1    1.7145E+02  9.5462E-01   1.7050E+02  0.000E+00  0.000E+00  0.000E+00  1.02483E+03  2.959E+00  4.290E+01  4.372E-01  7.279E-01
   1   13    5     8     2    1.7050E+02  2.1043E-01   1.7029E+02  0.000E+00  0.000E+00  0.000E+00  1.01858E+03  2.955E+00  4.284E+01  4.366E-01  1.607E-01
   1   13    4     8     3    1.7029E+02 -2.3059E+00   1.7259E+02  0.000E+00  0.000E+00  0.000E+00  1.01234E+03  2.962E+00  4.294E+01  4.376E+00 -1.757E-01
   1   13    3     8     4    1.7259E+02 -3.6054E+00   1.7620E+02  0.000E+00  0.000E+00  0.000E+00  1.00611E+03  2.981E+00  4.322E+01  4.404E+00 -2.729E-01
   1   13    2     8     5    1.7620E+02 -2.5792E+00   1.7878E+02  0.000E+00  0.000E+00  0.000E+00  9.99875E+02  3.000E+00  4.350E+01  4.433E+00 -1.939E-01
   1   13    1     8     6    1.7878E+02 -1.9988E+00   1.8078E+02  0.000E+00  0.000E+00  0.000E+00  9.94890E+02  3.015E+00  4.371E+01  2.673E+00 -2.493E-01





UNSATURATED ZONE PACKAGE VOLUMETRIC BUDGET FOR  TIME STEP    30 STRESS PERIOD   23
  ------------------------------------------------------------------------------



     CUMULATIVE VOLUMES      L**3       RATES FOR THIS TIME STEP      L**3/T
     ------------------                 ------------------------

           IN:                                      IN:
           ---                                      ---
        INFILTRATION =  1000790534.0021          INFILTRATION =           0.8475

          OUT:                                     OUT:
          ----                                     ----
              UZF ET =   856680248.9460                UZF ET =           0.8475
        UZF RECHARGE =   144034958.9997          UZF RECHARGE =           0.0004

            IN - OUT =       75326.0565              IN - OUT =      -4.0676E-04

          STORAGE:                                 STORAGE:
          --------                                 --------
      STORAGE CHANGE =       75311.6319        STORAGE CHANGE =      -4.0676E-04

 PERCENT DISCREPANCY IS DIFFERENCE BETWEEN IN-OUT MINUS CHANGE IN STORAGE
 DIVIDED BY THE AVERAGE OF IN AND OUT TIMES 100

 PERCENT DISCREPANCY =           0.00     PERCENT DISCREPANCY =           0.00






1
  VOLUMETRIC BUDGET FOR AGRICULTURAL FIELDS AT  END OF TIME STEP   30, STRESS PERIOD  23
  ------------------------------------------------------------------------------

     CUMULATIVE VOLUMES      L**3       RATES FOR THIS TIME STEP      L**3/T
     ------------------                 ------------------------

           IN:                                      IN:
           ---                                      ---
               AG WELLS  =   951679488.0000                 AG WELLS  =           0.0000
      DIVERSION SEGMENTS =           0.0000        DIVERSION SEGMENTS =           0.0000
           GW IRRIGATION =           0.0000             GW IRRIGATION =           0.0000
           SW IRRIGATION =           0.0000             SW IRRIGATION =           0.0000
        SYSTEM LOSSES GW =           0.0000          SYSTEM LOSSES GW =           0.0000
        SYSTEM LOSSES SW =           0.0000          SYSTEM LOSSES SW =           0.0000

                TOTAL IN =   951679488.0000                  TOTAL IN =           0.0000

          OUT:                                     OUT:
          ----                                     ----
               AG WELLS  =           0.0000                 AG WELLS  =           0.0000
      DIVERSION SEGMENTS =           0.0000        DIVERSION SEGMENTS =           0.0000
           GW IRRIGATION =   951679488.0000             GW IRRIGATION =           0.0000
           SW IRRIGATION =           0.0000             SW IRRIGATION =           0.0000
        SYSTEM LOSSES GW =           0.0000          SYSTEM LOSSES GW =           0.0000
        SYSTEM LOSSES SW =           0.0000          SYSTEM LOSSES SW =           0.0000

               TOTAL OUT =   951679488.0000                 TOTAL OUT =           0.0000

                IN - OUT =           0.0000                  IN - OUT =           0.0000

     PERCENT DISCREPANCY =           0.00         PERCENT DISCREPANCY =           0.00



1
  VOLUMETRIC BUDGET FOR ENTIRE MODEL AT END OF TIME STEP   30, STRESS PERIOD  23
  ------------------------------------------------------------------------------

     CUMULATIVE VOLUMES      L**3       RATES FOR THIS TIME STEP      L**3/T
     ------------------                 ------------------------

           IN:                                      IN:
           ---                                      ---
             STORAGE     =  1168210048.0000               STORAGE     =          12.0885
       CONSTANT HEAD     =           0.0000         CONSTANT HEAD     =           0.0000
     HEAD DEP BOUNDS     =    16541016.0000       HEAD DEP BOUNDS     =           0.2858
      STREAM LEAKAGE     =   723776768.0000        STREAM LEAKAGE     =          11.7126
        UZF RECHARGE     =   144034880.0000          UZF RECHARGE     =       4.0676E-04
               GW ET     =           0.0000                 GW ET     =           0.0000
     SURFACE LEAKAGE     =           0.0000       SURFACE LEAKAGE     =           0.0000
           AG WELLS      =           0.0000             AG WELLS      =           0.0000

                TOTAL IN =  2052562688.0000                  TOTAL IN =          24.0872

          OUT:                                     OUT:
          ----                                     ----
             STORAGE     =   466227584.0000               STORAGE     =          13.3076
       CONSTANT HEAD     =           0.0000         CONSTANT HEAD     =           0.0000
     HEAD DEP BOUNDS     =    17060970.0000       HEAD DEP BOUNDS     =           0.2902
      STREAM LEAKAGE     =   600064640.0000        STREAM LEAKAGE     =          10.4894
        UZF RECHARGE     =           0.0000          UZF RECHARGE     =           0.0000
               GW ET     =    17516984.0000                 GW ET     =           0.0000
     SURFACE LEAKAGE     =           0.0000       SURFACE LEAKAGE     =           0.0000
           AG WELLS      =   951679488.0000             AG WELLS      =           0.0000

               TOTAL OUT =  2052549632.0000                 TOTAL OUT =          24.0872

                IN - OUT =       13056.0000                  IN - OUT =       9.5367E-06

     PERCENT DISCREPANCY =           0.00         PERCENT DISCREPANCY =           0.00






         TIME SUMMARY AT END OF TIME STEP   30 IN STRESS PERIOD   23
                    SECONDS     MINUTES      HOURS       DAYS        YEARS
                    -----------------------------------------------------------
   TIME STEP LENGTH  87667.      1461.1      24.352      1.0147     2.77799E-03
 STRESS PERIOD TIME 2.63000E+06  43833.      730.56      30.440     8.33397E-02
         TOTAL TIME 5.79467E+07 9.65778E+05  16096.      670.68      1.8362    
1
1
                            STRESS PERIOD NO.   24, LENGTH =   2630000.    
                            -----------------------------------------------

                              NUMBER OF TIME STEPS =    30

                               MULTIPLIER FOR DELT =     1.000

                            INITIAL TIME STEP SIZE =   87666.66    

 REUSING NON-PARAMETER GHB CELLS FROM LAST STRESS PERIOD

      2 GHB CELLS

 REUSING STREAM SEGMENT DATA FROM LAST STRESS PERIOD



            AREAL INFILTRATION RATE
 READING ON UNIT   19 WITH FORMAT: (FREE)              

            1           2           3           4           5           6           7           8           9          10
 ........................................................................................................................
   1   1.0000E-10  2.0000E-10   0.000       0.000       0.000       0.000       0.000       0.000       0.000       0.000    
   2   2.0000E-10  1.0000E-10  2.0000E-10   0.000       0.000      8.0000E-10  8.0000E-10  5.0000E-10   0.000       0.000    
   3    0.000      5.0000E-10  1.0000E-10  1.0000E-10  8.0000E-10  8.0000E-10  5.0000E-10  5.0000E-10   0.000       0.000    
   4   8.0000E-10  5.0000E-10  1.0000E-10  1.0000E-10  1.0000E-10  1.0000E-10  1.0000E-10  1.0000E-10  2.0000E-10   0.000    
   5   8.0000E-10  5.0000E-10  1.0000E-10  1.0000E-10  1.0000E-10  1.0000E-10  1.0000E-10  1.0000E-10  1.0000E-10  1.0000E-10
   6   8.0000E-10  5.0000E-10  5.0000E-10  2.0000E-10  2.0000E-10  1.0000E-10  1.0000E-10  1.0000E-10  1.0000E-10  5.0000E-10
   7   8.0000E-10  5.0000E-10  5.0000E-10  2.0000E-10  2.0000E-10  1.0000E-10  1.0000E-10  2.0000E-10  2.0000E-10   0.000    
   8    0.000      5.0000E-10  5.0000E-10  2.0000E-10  2.0000E-10  1.0000E-10  1.0000E-10  2.0000E-10  5.0000E-10   0.000    
   9    0.000      5.0000E-10  5.0000E-10  2.0000E-10  2.0000E-10  1.0000E-10  1.0000E-10  2.0000E-10  5.0000E-10   0.000    
  10    0.000      5.0000E-10  5.0000E-10  2.0000E-10  2.0000E-10  1.0000E-10  1.0000E-10  2.0000E-10  5.0000E-10  8.0000E-10
  11    0.000      1.0000E-10  1.0000E-10  1.0000E-10  1.0000E-10  1.0000E-10  1.0000E-10  2.0000E-10  5.0000E-10   0.000    
  12   1.0000E-10  1.0000E-10  1.0000E-10  1.0000E-10  1.0000E-10  1.0000E-10  1.0000E-10  1.0000E-10  2.0000E-10   0.000    
  13   1.0000E-10  1.0000E-10  2.0000E-10  2.0000E-10  2.0000E-10  2.0000E-10  2.0000E-10  1.0000E-10  1.0000E-10   0.000    
  14    0.000      2.0000E-10  5.0000E-10  5.0000E-10  5.0000E-10  5.0000E-10  5.0000E-10  2.0000E-10  1.0000E-10   0.000    
  15    0.000       0.000      8.0000E-10  8.0000E-10  8.0000E-10  8.0000E-10   0.000       0.000       0.000       0.000    

                  ET RATE =  5.000000E-10

 USING ET EXTINCTION DEPTH FROM PREVIOUS STRESS PERIOD. CURRENT PERIOD IS:      24

 USING EXTINCTION WATER CONTENT FROM PREVIOUS STRESS PERIOD. CURRENT PERIOD IS:      24

 USING AIR ENTRY PRESSURE FROM PREVIOUS STRESS PERIOD. CURRENT PERIOD IS:      24

 USING ROOT PRESSURE HEAD FROM PREVIOUS STRESS PERIOD. CURRENT PERIOD IS:      24

 USING ROOT ACTIVITY FROM PREVIOUS STRESS PERIOD. CURRENT PERIOD IS:      24

 PROCESSING AG STRESS PERIOD DATA

 READING AG STRESS PERIOD DATA

 READING IRRIGATION WELL

 END PROCESSING AG STRESS PERIOD DATA OPTIONS
 
 SOLVING FOR HEAD 
                                                   Max.-Head-Change                         Max.-Flux-Residual
  Residual-Control   Outer-Iter.   Inner-Iter.     Column Row Layer    Maximum-Head-Change  Column Row Layer    Maximum-Flux-Residual          L2-NORM 
          0                 1           2             4    7     1       0.3491136879E-01       4    7    1         0.1841503836E+01      0.4204123329E+01
          0                 2           2             4    7     1      -0.3394118148E-02       4    7    1        -0.1840526995E+00      0.4202580311E+00
          0                 3           2             4    7     1       0.2309532028E-03       4    7    1         0.1287399919E-01      0.2940298310E-01
          0                 4           1             4    7     1      -0.9178366383E-05       4    7    1        -0.5258888500E-03      0.1201547658E-02

    ------------------------------------------------
       NWT REQUIRED            4 OUTER ITERATIONS 
       AND A TOTAL OF          7 INNER ITERATIONS.
    ------------------------------------------------

 NO OUTPUT CONTROL FOR STRESS PERIOD   24   TIME STEP    1
 
 SOLVING FOR HEAD 
                                                   Max.-Head-Change                         Max.-Flux-Residual
  Residual-Control   Outer-Iter.   Inner-Iter.     Column Row Layer    Maximum-Head-Change  Column Row Layer    Maximum-Flux-Residual          L2-NORM 
          0                 1           2             4    7     1       0.3439949234E-01       4    7    1         0.1813925875E+01      0.4158028142E+01
          0                 2           2             4    7     1      -0.3344351949E-02       4    7    1        -0.1812962957E+00      0.4156476194E+00
          0                 3           2             4    7     1       0.2275668143E-03       4    7    1         0.1268119336E-01      0.2908022060E-01
          0                 4           1             4    7     1      -0.9043784290E-05       4    7    1        -0.5180127255E-03      0.1188365741E-02

    ------------------------------------------------
       NWT REQUIRED            4 OUTER ITERATIONS 
       AND A TOTAL OF          7 INNER ITERATIONS.
    ------------------------------------------------

 NO OUTPUT CONTROL FOR STRESS PERIOD   24   TIME STEP    2
 
 SOLVING FOR HEAD 
                                                   Max.-Head-Change                         Max.-Flux-Residual
  Residual-Control   Outer-Iter.   Inner-Iter.     Column Row Layer    Maximum-Head-Change  Column Row Layer    Maximum-Flux-Residual          L2-NORM 
          0                 1           2             4    7     1       0.3390540668E-01       4    7    1         0.1787334677E+01      0.4111981728E+01
          0                 2           2             4    7     1      -0.3296315473E-02       4    7    1        -0.1786385213E+00      0.4110448149E+00
          0                 3           2             4    7     1       0.2242981294E-03       4    7    1         0.1249528666E-01      0.2875818820E-01
          0                 4           1             4    7     1      -0.8913879832E-05       4    7    1        -0.5104184565E-03      0.1175183931E-02

    ------------------------------------------------
       NWT REQUIRED            4 OUTER ITERATIONS 
       AND A TOTAL OF          7 INNER ITERATIONS.
    ------------------------------------------------

 NO OUTPUT CONTROL FOR STRESS PERIOD   24   TIME STEP    3
 
 SOLVING FOR HEAD 
                                                   Max.-Head-Change                         Max.-Flux-Residual
  Residual-Control   Outer-Iter.   Inner-Iter.     Column Row Layer    Maximum-Head-Change  Column Row Layer    Maximum-Flux-Residual          L2-NORM 
          0                 1           2             4    7     1       0.3342783481E-01       4    7    1         0.1761658595E+01      0.4067032625E+01
          0                 2           2             4    7     1      -0.3249884557E-02       4    7    1        -0.1760722150E+00      0.4065516848E+00
          0                 3           2             4    7     1       0.2211386980E-03       4    7    1         0.1231577809E-01      0.2844383387E-01
          0                 4           1             4    7     1      -0.8788317872E-05       4    7    1        -0.5030855591E-03      0.1162351875E-02

    ------------------------------------------------
       NWT REQUIRED            4 OUTER ITERATIONS 
       AND A TOTAL OF          7 INNER ITERATIONS.
    ------------------------------------------------

 NO OUTPUT CONTROL FOR STRESS PERIOD   24   TIME STEP    4
 
 SOLVING FOR HEAD 
                                                   Max.-Head-Change                         Max.-Flux-Residual
  Residual-Control   Outer-Iter.   Inner-Iter.     Column Row Layer    Maximum-Head-Change  Column Row Layer    Maximum-Flux-Residual          L2-NORM 
          0                 1           2             4    7     1       0.3296572705E-01       4    7    1         0.1736838723E+01      0.4023111252E+01
          0                 2           2             4    7     1      -0.3204957149E-02       4    7    1        -0.1735914888E+00      0.4021613039E+00
          0                 3           2             4    7     1       0.2180815763E-03       4    7    1         0.1214225582E-01      0.2813669142E-01
          0                 4           1             4    7     1      -0.8666821298E-05       4    7    1        -0.4959972084E-03      0.1149858419E-02

    ------------------------------------------------
       NWT REQUIRED            4 OUTER ITERATIONS 
       AND A TOTAL OF          7 INNER ITERATIONS.
    ------------------------------------------------

 NO OUTPUT CONTROL FOR STRESS PERIOD   24   TIME STEP    5
 
 SOLVING FOR HEAD 
                                                   Max.-Head-Change                         Max.-Flux-Residual
  Residual-Control   Outer-Iter.   Inner-Iter.     Column Row Layer    Maximum-Head-Change  Column Row Layer    Maximum-Flux-Residual          L2-NORM 
          0                 1           2             4    7     1       0.3251851412E-01       4    7    1         0.1712842562E+01      0.3980176117E+01
          0                 2           2             4    7     1      -0.3161477896E-02       4    7    1        -0.1711930943E+00      0.3978694456E+00
          0                 3           2             4    7     1       0.2151229969E-03       4    7    1         0.1197449261E-01      0.2783639390E-01
          0                 4           1             4    7     1      -0.8549241364E-05       4    7    1        -0.4891440935E-03      0.1137541023E-02

    ------------------------------------------------
       NWT REQUIRED            4 OUTER ITERATIONS 
       AND A TOTAL OF          7 INNER ITERATIONS.
    ------------------------------------------------

 NO OUTPUT CONTROL FOR STRESS PERIOD   24   TIME STEP    6
 
 SOLVING FOR HEAD 
                                                   Max.-Head-Change                         Max.-Flux-Residual
  Residual-Control   Outer-Iter.   Inner-Iter.     Column Row Layer    Maximum-Head-Change  Column Row Layer    Maximum-Flux-Residual          L2-NORM 
          0                 1           2             4    7     1       0.3208487909E-01       4    7    1         0.1689596749E+01      0.3938168348E+01
          0                 2           2             4    7     1      -0.3119318760E-02       4    7    1        -0.1688696986E+00      0.3936703239E+00
          0                 3           2             4    7     1       0.2122542479E-03       4    7    1         0.1181197552E-01      0.2754264682E-01
          0                 4           1             4    7     1      -0.8435232114E-05       4    7    1        -0.4825053311E-03      0.1125542098E-02

    ------------------------------------------------
       NWT REQUIRED            4 OUTER ITERATIONS 
       AND A TOTAL OF          7 INNER ITERATIONS.
    ------------------------------------------------

 NO OUTPUT CONTROL FOR STRESS PERIOD   24   TIME STEP    7
 
 SOLVING FOR HEAD 
                                                   Max.-Head-Change                         Max.-Flux-Residual
  Residual-Control   Outer-Iter.   Inner-Iter.     Column Row Layer    Maximum-Head-Change  Column Row Layer    Maximum-Flux-Residual          L2-NORM 
          0                 1           2             4    7     1       0.3166426702E-01       4    7    1         0.1667069542E+01      0.3897045701E+01
          0                 2           2             4    7     1      -0.3078425785E-02       4    7    1        -0.1666181291E+00      0.3895597018E+00
          0                 3           2             4    7     1       0.2094716577E-03       4    7    1         0.1165448267E-01      0.2725505690E-01
          0                 4           1             4    7     1      -0.8324646988E-05       4    7    1        -0.4760717989E-03      0.1113763667E-02

    ------------------------------------------------
       NWT REQUIRED            4 OUTER ITERATIONS 
       AND A TOTAL OF          7 INNER ITERATIONS.
    ------------------------------------------------

 NO OUTPUT CONTROL FOR STRESS PERIOD   24   TIME STEP    8
 
 SOLVING FOR HEAD 
                                                   Max.-Head-Change                         Max.-Flux-Residual
  Residual-Control   Outer-Iter.   Inner-Iter.     Column Row Layer    Maximum-Head-Change  Column Row Layer    Maximum-Flux-Residual          L2-NORM 
          0                 1           2             4    7     1       0.3125576406E-01       4    7    1         0.1645210245E+01      0.3856762969E+01
          0                 2           2             4    7     1      -0.3038710120E-02       4    7    1        -0.1644333185E+00      0.3855330227E+00
          0                 3           2             4    7     1       0.2067691793E-03       4    7    1         0.1150165951E-01      0.2697334672E-01
          0                 4           1             4    7     1      -0.8217245370E-05       4    7    1        -0.4698290222E-03      0.1102276355E-02

    ------------------------------------------------
       NWT REQUIRED            4 OUTER ITERATIONS 
       AND A TOTAL OF          7 INNER ITERATIONS.
    ------------------------------------------------

 NO OUTPUT CONTROL FOR STRESS PERIOD   24   TIME STEP    9
 
 SOLVING FOR HEAD 
                                                   Max.-Head-Change                         Max.-Flux-Residual
  Residual-Control   Outer-Iter.   Inner-Iter.     Column Row Layer    Maximum-Head-Change  Column Row Layer    Maximum-Flux-Residual          L2-NORM 
          0                 1           2             4    7     1       0.3085892661E-01       4    7    1         0.1623993403E+01      0.3817283820E+01
          0                 2           2             4    7     1      -0.3000128635E-02       4    7    1        -0.1623127223E+00      0.3815865952E+00
          0                 3           2             4    7     1       0.2041438787E-03       4    7    1         0.1135332814E-01      0.2669723275E-01
          0                 4           1             4    7     1      -0.8112911213E-05       4    7    1        -0.4637697461E-03      0.1090974515E-02

    ------------------------------------------------
       NWT REQUIRED            4 OUTER ITERATIONS 
       AND A TOTAL OF          7 INNER ITERATIONS.
    ------------------------------------------------

 NO OUTPUT CONTROL FOR STRESS PERIOD   24   TIME STEP   10
 
 SOLVING FOR HEAD 
                                                   Max.-Head-Change                         Max.-Flux-Residual
  Residual-Control   Outer-Iter.   Inner-Iter.     Column Row Layer    Maximum-Head-Change  Column Row Layer    Maximum-Flux-Residual          L2-NORM 
          0                 1           2             4    7     1       0.3047295010E-01       4    7    1         0.1603374087E+01      0.3778576468E+01
          0                 2           2             4    7     1      -0.2962603085E-02       4    7    1        -0.1602518500E+00      0.3776961216E+00
          0                 3           2             4    7     1       0.2015904310E-03       4    7    1         0.1120917441E-01      0.2642506072E-01
          0                 4           1             4    7     1      -0.8011433026E-05       4    7    1        -0.4578811331E-03      0.1079865996E-02

    ------------------------------------------------
       NWT REQUIRED            4 OUTER ITERATIONS 
       AND A TOTAL OF          7 INNER ITERATIONS.
    ------------------------------------------------

 NO OUTPUT CONTROL FOR STRESS PERIOD   24   TIME STEP   11
 
 SOLVING FOR HEAD 
                                                   Max.-Head-Change                         Max.-Flux-Residual
  Residual-Control   Outer-Iter.   Inner-Iter.     Column Row Layer    Maximum-Head-Change  Column Row Layer    Maximum-Flux-Residual          L2-NORM 
          0                 1           2             4    7     1       0.3009722103E-01       4    7    1         0.1583317893E+01      0.3740631034E+01
          0                 2           2             4    7     1      -0.2926073883E-02       4    7    1        -0.1582472627E+00      0.3739244175E+00
          0                 3           2             4    7     1       0.1991047815E-03       4    7    1         0.1106895777E-01      0.2616118720E-01
          0                 4           1             4    7     1      -0.7912648479E-05       4    7    1        -0.4521533306E-03      0.1069077780E-02

    ------------------------------------------------
       NWT REQUIRED            4 OUTER ITERATIONS 
       AND A TOTAL OF          7 INNER ITERATIONS.
    ------------------------------------------------

 NO OUTPUT CONTROL FOR STRESS PERIOD   24   TIME STEP   12
 
 SOLVING FOR HEAD 
                                                   Max.-Head-Change                         Max.-Flux-Residual
  Residual-Control   Outer-Iter.   Inner-Iter.     Column Row Layer    Maximum-Head-Change  Column Row Layer    Maximum-Flux-Residual          L2-NORM 
          0                 1           2             4    7     1       0.2973116831E-01       4    7    1         0.1563793008E+01      0.3703396065E+01
          0                 2           2             4    7     1      -0.2890485442E-02       4    7    1        -0.1562957805E+00      0.3702023951E+00
          0                 3           2             4    7     1       0.1966831479E-03       4    7    1         0.1093245577E-01      0.2590078845E-01
          0                 4           1             4    7     1      -0.7816408943E-05       4    7    1        -0.4465773122E-03      0.1058441310E-02

    ------------------------------------------------
       NWT REQUIRED            4 OUTER ITERATIONS 
       AND A TOTAL OF          7 INNER ITERATIONS.
    ------------------------------------------------

 NO OUTPUT CONTROL FOR STRESS PERIOD   24   TIME STEP   13
 
 SOLVING FOR HEAD 
                                                   Max.-Head-Change                         Max.-Flux-Residual
  Residual-Control   Outer-Iter.   Inner-Iter.     Column Row Layer    Maximum-Head-Change  Column Row Layer    Maximum-Flux-Residual          L2-NORM 
          0                 1           2             4    7     1       0.2937439663E-01       4    7    1         0.1544777137E+01      0.3666841635E+01
          0                 2           2             4    7     1      -0.2855799347E-02       4    7    1        -0.1543951749E+00      0.3665483530E+00
          0                 3           2             4    7     1       0.1943229160E-03       4    7    1         0.1079951257E-01      0.2564510640E-01
          0                 4           1             4    7     1      -0.7722609306E-05       4    7    1        -0.4411466480E-03      0.1047980386E-02

    ------------------------------------------------
       NWT REQUIRED            4 OUTER ITERATIONS 
       AND A TOTAL OF          7 INNER ITERATIONS.
    ------------------------------------------------

 NO OUTPUT CONTROL FOR STRESS PERIOD   24   TIME STEP   14
 
 SOLVING FOR HEAD 
                                                   Max.-Head-Change                         Max.-Flux-Residual
  Residual-Control   Outer-Iter.   Inner-Iter.     Column Row Layer    Maximum-Head-Change  Column Row Layer    Maximum-Flux-Residual          L2-NORM 
          0                 1           2             4    7     1       0.2902627477E-01       4    7    1         0.1526235159E+01      0.3630939400E+01
          0                 2           2             4    7     1      -0.2821949753E-02       4    7    1        -0.1525419357E+00      0.3628475053E+00
          0                 3           2             4    7     1       0.1920196053E-03       4    7    1         0.1066988260E-01      0.2538622737E-01
          0                 4           1             4    7     1      -0.7631071697E-05       4    7    1        -0.4358513347E-03      0.1037408755E-02

    ------------------------------------------------
       NWT REQUIRED            4 OUTER ITERATIONS 
       AND A TOTAL OF          7 INNER ITERATIONS.
    ------------------------------------------------

 NO OUTPUT CONTROL FOR STRESS PERIOD   24   TIME STEP   15
 
 SOLVING FOR HEAD 
                                                   Max.-Head-Change                         Max.-Flux-Residual
  Residual-Control   Outer-Iter.   Inner-Iter.     Column Row Layer    Maximum-Head-Change  Column Row Layer    Maximum-Flux-Residual          L2-NORM 
          0                 1           2             4    7     1       0.2868663952E-01       4    7    1         0.1508156522E+01      0.3595773738E+01
          0                 2           2             4    7     1      -0.2788934215E-02       4    7    1        -0.1507350078E+00      0.3594444385E+00
          0                 3           2             4    7     1       0.1897730488E-03       4    7    1         0.1054349204E-01      0.2514813920E-01
          0                 4           1             4    7     1      -0.7541790242E-05       4    7    1        -0.4306883607E-03      0.1027709603E-02

    ------------------------------------------------
       NWT REQUIRED            4 OUTER ITERATIONS 
       AND A TOTAL OF          7 INNER ITERATIONS.
    ------------------------------------------------

 NO OUTPUT CONTROL FOR STRESS PERIOD   24   TIME STEP   16
 
 SOLVING FOR HEAD 
                                                   Max.-Head-Change                         Max.-Flux-Residual
  Residual-Control   Outer-Iter.   Inner-Iter.     Column Row Layer    Maximum-Head-Change  Column Row Layer    Maximum-Flux-Residual          L2-NORM 
          0                 1           2             4    7     1       0.2835477503E-01       4    7    1         0.1490502798E+01      0.3561216405E+01
          0                 2           2             4    7     1      -0.2756669710E-02       4    7    1        -0.1489705505E+00      0.3559900486E+00
          0                 3           2             4    7     1       0.1875775976E-03       4    7    1         0.1042007229E-01      0.2490645095E-01
          0                 4           1             4    7     1      -0.7454539524E-05       4    7    1        -0.4256467528E-03      0.1017801944E-02

    ------------------------------------------------
       NWT REQUIRED            4 OUTER ITERATIONS 
       AND A TOTAL OF          7 INNER ITERATIONS.
    ------------------------------------------------

 NO OUTPUT CONTROL FOR STRESS PERIOD   24   TIME STEP   17
 
 SOLVING FOR HEAD 
                                                   Max.-Head-Change                         Max.-Flux-Residual
  Residual-Control   Outer-Iter.   Inner-Iter.     Column Row Layer    Maximum-Head-Change  Column Row Layer    Maximum-Flux-Residual          L2-NORM 
          0                 1           2             4    7     1       0.2803043446E-01       4    7    1         0.1473259525E+01      0.3527253738E+01
          0                 2           2             4    7     1      -0.2725136784E-02       4    7    1        -0.1472471182E+00      0.3525952041E+00
          0                 3           2             4    7     1       0.1854319278E-03       4    7    1         0.1029952215E-01      0.2466895585E-01
          0                 4           1             4    7     1      -0.7369267619E-05       4    7    1        -0.4207223715E-03      0.1008101492E-02

    ------------------------------------------------
       NWT REQUIRED            4 OUTER ITERATIONS 
       AND A TOTAL OF          7 INNER ITERATIONS.
    ------------------------------------------------

 NO OUTPUT CONTROL FOR STRESS PERIOD   24   TIME STEP   18
 
 SOLVING FOR HEAD 
                                                   Max.-Head-Change                         Max.-Flux-Residual
  Residual-Control   Outer-Iter.   Inner-Iter.     Column Row Layer    Maximum-Head-Change  Column Row Layer    Maximum-Flux-Residual          L2-NORM 
          0                 1           2             4    7     1       0.2771338566E-01       4    7    1         0.1456413665E+01      0.3493855333E+01
          0                 2           2             4    7     1      -0.2694312720E-02       4    7    1        -0.1455634075E+00      0.3492566561E+00
          0                 3           2             4    7     1       0.1833344935E-03       4    7    1         0.1018175050E-01      0.2443540273E-01
          0                 4           1             4    7     1      -0.7285912473E-05       4    7    1        -0.4159114751E-03      0.9986067114E-03

    ------------------------------------------------
       NWT REQUIRED            4 OUTER ITERATIONS 
       AND A TOTAL OF          7 INNER ITERATIONS.
    ------------------------------------------------

 NO OUTPUT CONTROL FOR STRESS PERIOD   24   TIME STEP   19
 
 SOLVING FOR HEAD 
                                                   Max.-Head-Change                         Max.-Flux-Residual
  Residual-Control   Outer-Iter.   Inner-Iter.     Column Row Layer    Maximum-Head-Change  Column Row Layer    Maximum-Flux-Residual          L2-NORM 
          0                 1           2             4    7     1       0.2740314558E-01       4    7    1         0.1439938559E+01      0.3461005557E+01
          0                 2           2             4    7     1      -0.2664150629E-02       4    7    1        -0.1439167540E+00      0.3459730019E+00
          0                 3           2             4    7     1       0.1812821040E-03       4    7    1         0.1006657096E-01      0.2420567753E-01
          0                 4           1             4    7     1      -0.7204347447E-05       4    7    1        -0.4112064730E-03      0.9891815970E-03

    ------------------------------------------------
       NWT REQUIRED            4 OUTER ITERATIONS 
       AND A TOTAL OF          7 INNER ITERATIONS.
    ------------------------------------------------

 NO OUTPUT CONTROL FOR STRESS PERIOD   24   TIME STEP   20
 
 SOLVING FOR HEAD 
                                                   Max.-Head-Change                         Max.-Flux-Residual
  Residual-Control   Outer-Iter.   Inner-Iter.     Column Row Layer    Maximum-Head-Change  Column Row Layer    Maximum-Flux-Residual          L2-NORM 
          0                 1           2             4    7     1       0.2709939588E-01       4    7    1         0.1423816472E+01      0.3428681768E+01
          0                 2           2             4    7     1      -0.2634619559E-02       4    7    1        -0.1423053851E+00      0.3427418976E+00
          0                 3           2             4    7     1       0.1792726536E-03       4    7    1         0.9953859567E-02      0.2397960206E-01
          0                 4           1             4    7     1      -0.7124488496E-05       4    7    1        -0.4066022871E-03      0.9799345176E-03

    ------------------------------------------------
       NWT REQUIRED            4 OUTER ITERATIONS 
       AND A TOTAL OF          7 INNER ITERATIONS.
    ------------------------------------------------

 NO OUTPUT CONTROL FOR STRESS PERIOD   24   TIME STEP   21
 
 SOLVING FOR HEAD 
                                                   Max.-Head-Change                         Max.-Flux-Residual
  Residual-Control   Outer-Iter.   Inner-Iter.     Column Row Layer    Maximum-Head-Change  Column Row Layer    Maximum-Flux-Residual          L2-NORM 
          0                 1           2             4    7     1       0.2680183888E-01       4    7    1         0.1408030900E+01      0.3396870508E+01
          0                 2           2             4    7     1      -0.2605690567E-02       4    7    1        -0.1407276509E+00      0.3395620394E+00
          0                 3           2             4    7     1       0.1773041720E-03       4    7    1         0.9843500834E-02      0.2375714593E-01
          0                 4           1             4    7     1      -0.7046258485E-05       4    7    1        -0.4020942238E-03      0.9708454012E-03

    ------------------------------------------------
       NWT REQUIRED            4 OUTER ITERATIONS 
       AND A TOTAL OF          7 INNER ITERATIONS.
    ------------------------------------------------

 NO OUTPUT CONTROL FOR STRESS PERIOD   24   TIME STEP   22
 
 SOLVING FOR HEAD 
                                                   Max.-Head-Change                         Max.-Flux-Residual
  Residual-Control   Outer-Iter.   Inner-Iter.     Column Row Layer    Maximum-Head-Change  Column Row Layer    Maximum-Flux-Residual          L2-NORM 
          0                 1           2             4    7     1       0.2651046930E-01       4    7    1         0.1392581038E+01      0.3365569881E+01
          0                 2           2             4    7     1      -0.2577363140E-02       4    7    1        -0.1391834712E+00      0.3364332126E+00
          0                 3           2             4    7     1       0.1753766250E-03       4    7    1         0.9735489207E-02      0.2353824359E-01
          0                 4           1             4    7     1      -0.6969654998E-05       4    7    1        -0.3976820462E-03      0.9618877370E-03

    ------------------------------------------------
       NWT REQUIRED            4 OUTER ITERATIONS 
       AND A TOTAL OF          7 INNER ITERATIONS.
    ------------------------------------------------

 NO OUTPUT CONTROL FOR STRESS PERIOD   24   TIME STEP   23
 
 SOLVING FOR HEAD 
                                                   Max.-Head-Change                         Max.-Flux-Residual
  Residual-Control   Outer-Iter.   Inner-Iter.     Column Row Layer    Maximum-Head-Change  Column Row Layer    Maximum-Flux-Residual          L2-NORM 
          0                 1           2             4    7     1       0.2622474482E-01       4    7    1         0.1377437351E+01      0.3334743914E+01
          0                 2           2             4    7     1      -0.2549584553E-02       4    7    1        -0.1376698938E+00      0.3333518709E+00
          0                 3           2             4    7     1       0.1734864246E-03       4    7    1         0.9629618179E-02      0.2332268711E-01
          0                 4           1             4    7     1      -0.6894536196E-05       4    7    1        -0.3933573171E-03      0.9530919397E-03

    ------------------------------------------------
       NWT REQUIRED            4 OUTER ITERATIONS 
       AND A TOTAL OF          7 INNER ITERATIONS.
    ------------------------------------------------

 NO OUTPUT CONTROL FOR STRESS PERIOD   24   TIME STEP   24
 
 SOLVING FOR HEAD 
                                                   Max.-Head-Change                         Max.-Flux-Residual
  Residual-Control   Outer-Iter.   Inner-Iter.     Column Row Layer    Maximum-Head-Change  Column Row Layer    Maximum-Flux-Residual          L2-NORM 
          0                 1           2             4    7     1       0.2594442645E-01       4    7    1         0.1362586352E+01      0.3304397874E+01
          0                 2           2             4    7     1      -0.2522331565E-02       4    7    1        -0.1361855706E+00      0.3303184821E+00
          0                 3           2             4    7     1       0.1716319887E-03       4    7    1         0.9525793428E-02      0.2311045786E-01
          0                 4           1             4    7     1      -0.6820837838E-05       4    7    1        -0.3891161527E-03      0.9444168429E-03

    ------------------------------------------------
       NWT REQUIRED            4 OUTER ITERATIONS 
       AND A TOTAL OF          7 INNER ITERATIONS.
    ------------------------------------------------

 NO OUTPUT CONTROL FOR STRESS PERIOD   24   TIME STEP   25
 
 SOLVING FOR HEAD 
                                                   Max.-Head-Change                         Max.-Flux-Residual
  Residual-Control   Outer-Iter.   Inner-Iter.     Column Row Layer    Maximum-Head-Change  Column Row Layer    Maximum-Flux-Residual          L2-NORM 
          0                 1           2             4    7     1       0.2566956065E-01       4    7    1         0.1348030283E+01      0.3274519662E+01
          0                 2           2             4    7     1      -0.2495608696E-02       4    7    1        -0.1347307256E+00      0.3273318574E+00
          0                 3           2             4    7     1       0.1698136255E-03       4    7    1         0.9424030638E-02      0.2290149696E-01
          0                 4           1             4    7     1      -0.6748573855E-05       4    7    1        -0.3849592317E-03      0.9358876512E-03

    ------------------------------------------------
       NWT REQUIRED            4 OUTER ITERATIONS 
       AND A TOTAL OF          7 INNER ITERATIONS.
    ------------------------------------------------

 NO OUTPUT CONTROL FOR STRESS PERIOD   24   TIME STEP   26
 
 SOLVING FOR HEAD 
                                                   Max.-Head-Change                         Max.-Flux-Residual
  Residual-Control   Outer-Iter.   Inner-Iter.     Column Row Layer    Maximum-Head-Change  Column Row Layer    Maximum-Flux-Residual          L2-NORM 
          0                 1           2             4    7     1       0.2539965442E-01       4    7    1         0.1333742285E+01      0.3245086852E+01
          0                 2           2             4    7     1      -0.2469368014E-02       4    7    1        -0.1333026744E+00      0.3243901570E+00
          0                 3           2             4    7     1       0.1680280734E-03       4    7    1         0.9324142028E-02      0.2269571026E-01
          0                 4           1             4    7     1      -0.6677613922E-05       4    7    1        -0.3808788865E-03      0.9274619046E-03

    ------------------------------------------------
       NWT REQUIRED            4 OUTER ITERATIONS 
       AND A TOTAL OF          7 INNER ITERATIONS.
    ------------------------------------------------

 NO OUTPUT CONTROL FOR STRESS PERIOD   24   TIME STEP   27
 
 SOLVING FOR HEAD 
                                                   Max.-Head-Change                         Max.-Flux-Residual
  Residual-Control   Outer-Iter.   Inner-Iter.     Column Row Layer    Maximum-Head-Change  Column Row Layer    Maximum-Flux-Residual          L2-NORM 
          0                 1           2             4    7     1       0.2513464436E-01       4    7    1         0.1319718749E+01      0.3216085793E+01
          0                 2           2             4    7     1      -0.2443603355E-02       4    7    1        -0.1319010562E+00      0.3214908422E+00
          0                 3           2             4    7     1       0.1662749125E-03       4    7    1         0.9226102371E-02      0.2249287108E-01
          0                 4           1             4    7     1      -0.6607940541E-05       4    7    1        -0.3768740489E-03      0.9191800183E-03

    ------------------------------------------------
       NWT REQUIRED            4 OUTER ITERATIONS 
       AND A TOTAL OF          7 INNER ITERATIONS.
    ------------------------------------------------

 NO OUTPUT CONTROL FOR STRESS PERIOD   24   TIME STEP   28
 
 SOLVING FOR HEAD 
                                                   Max.-Head-Change                         Max.-Flux-Residual
  Residual-Control   Outer-Iter.   Inner-Iter.     Column Row Layer    Maximum-Head-Change  Column Row Layer    Maximum-Flux-Residual          L2-NORM 
          0                 1           2             4    7     1       0.2487447739E-01       4    7    1         0.1305956389E+01      0.3187523835E+01
          0                 2           2             4    7     1      -0.2418309557E-02       4    7    1        -0.1305255423E+00      0.3186358208E+00
          0                 3           2             4    7     1       0.1645537918E-03       4    7    1         0.9129888668E-02      0.2229313385E-01
          0                 4           1             4    7     1      -0.6539540931E-05       4    7    1        -0.3729437990E-03      0.9110069212E-03

    ------------------------------------------------
       NWT REQUIRED            4 OUTER ITERATIONS 
       AND A TOTAL OF          7 INNER ITERATIONS.
    ------------------------------------------------

 NO OUTPUT CONTROL FOR STRESS PERIOD   24   TIME STEP   29
 
 SOLVING FOR HEAD 
                                                   Max.-Head-Change                         Max.-Flux-Residual
  Residual-Control   Outer-Iter.   Inner-Iter.     Column Row Layer    Maximum-Head-Change  Column Row Layer    Maximum-Flux-Residual          L2-NORM 
          0                 1           2             4    7     1       0.2461870120E-01       4    7    1         0.1292430497E+01      0.3159375960E+01
          0                 2           2             4    7     1      -0.2393442645E-02       4    7    1        -0.1291736634E+00      0.3158221721E+00
          0                 3           2             4    7     1       0.1628617191E-03       4    7    1         0.9035328193E-02      0.2209630063E-01
          0                 4           1             4    7     1      -0.6472295936E-05       4    7    1        -0.3690811022E-03      0.9029775516E-03

    ------------------------------------------------
       NWT REQUIRED            4 OUTER ITERATIONS 
       AND A TOTAL OF          7 INNER ITERATIONS.
    ------------------------------------------------

 NO OUTPUT CONTROL FOR STRESS PERIOD   24   TIME STEP   30



 STREAM LISTING     PERIOD     24   STEP       30

 LAYER ROW COL. STREAM  RCH.  FLOW INTO     FLOW TO   FLOW OUT OF   OVRLND.     DIRECT     STREAM       STREAM     STREAM     STREAM   STREAMBED  STREAMBED
                SEG.NO.  NO.  STRM. RCH.    AQUIFER    STRM. RCH.    RUNOFF     PRECIP       ET          HEAD       DEPTH      WIDTH   CONDCTNC.   GRADIENT

   1    1    1     1     1    2.1000E+01  2.2592E-01   2.0774E+01  0.000E+00  0.000E+00  0.000E+00  1.09416E+03  1.115E+00  1.220E+01  5.490E-02  1.372E+00
   1    2    2     1     2    2.0774E+01  3.4917E-01   2.0425E+01  0.000E+00  0.000E+00  0.000E+00  1.08917E+03  1.110E+00  1.214E+01  8.495E-02  1.370E+00
   1    3    3     1     3    2.0425E+01  2.9709E-01   2.0128E+01  0.000E+00  0.000E+00  0.000E+00  1.08352E+03  1.105E+00  1.206E+01  7.238E-02  1.368E+00
   1    3    4     1     4    2.0128E+01  2.7299E-01   1.9855E+01  0.000E+00  0.000E+00  0.000E+00  1.07851E+03  1.100E+00  1.200E+01  6.659E-02  1.367E+00
   1    4    5     2     1    1.7855E+01  3.1056E-01   1.7545E+01  0.000E+00  0.000E+00  0.000E+00  1.07292E+03  9.816E-01  1.200E+01  7.800E-02  1.327E+00
   1    5    6     2     2    1.7545E+01  2.3835E-01   1.7306E+01  0.000E+00  0.000E+00  0.000E+00  1.06748E+03  9.724E-01  1.200E+01  6.000E-02  1.324E+00
   1    6    6     2     3    1.7306E+01  2.3787E-01   1.7068E+01  0.000E+00  0.000E+00  0.000E+00  1.06276E+03  9.644E-01  1.200E+01  6.000E-02  1.321E+00
   1    7    6     2     4    1.7068E+01  2.3738E-01   1.6831E+01  0.000E+00  0.000E+00  0.000E+00  1.05803E+03  9.564E-01  1.200E+01  6.000E-02  1.319E+00
   1    8    6     2     5    1.6831E+01  2.3690E-01   1.6594E+01  0.000E+00  0.000E+00  0.000E+00  1.05331E+03  9.484E-01  1.200E+01  6.000E-02  1.316E+00
   1    3    5     3     1    2.0000E+00  2.8252E-01   1.7175E+00  0.000E+00  0.000E+00  0.000E+00  1.07555E+03  1.909E+00  9.636E+00  7.227E-02  1.955E+00
   1    3    6     3     2    1.7175E+00  2.4905E-01   1.4684E+00  0.000E+00  0.000E+00  0.000E+00  1.07264E+03  1.727E+00  8.909E+00  6.682E-02  1.864E+00
   1    3    7     3     3    1.4684E+00  1.9718E-01   1.2712E+00  0.000E+00  0.000E+00  0.000E+00  1.06987E+03  1.555E+00  8.218E+00  5.547E-02  1.777E+00
   1    4    8     3     4    1.2712E+00  2.2567E-01   1.0456E+00  0.000E+00  0.000E+00  0.000E+00  1.06682E+03  1.364E+00  7.455E+00  6.709E-02  1.682E+00
   1    5    8     3     5    1.0456E+00  1.5790E-01   8.8768E-01  0.000E+00  0.000E+00  0.000E+00  1.06362E+03  1.164E+00  6.655E+00  4.991E-02  1.582E+00
   1    6    8     3     6    8.8768E-01  5.5980E-02   8.3170E-01  0.000E+00  0.000E+00  0.000E+00  1.06158E+03  1.036E+00  6.145E+00  1.844E-02  1.518E+00
   1    5   10     4     1    1.0000E+01  9.0919E-02   9.9091E+00  0.000E+00  0.000E+00  0.000E+00  1.07836E+03  6.368E-01  1.000E+01  2.500E-02  1.212E+00
   1    5    9     4     2    9.9091E+00  1.8158E-01   9.7275E+00  0.000E+00  0.000E+00  0.000E+00  1.07154E+03  6.315E-01  1.000E+01  5.000E-02  1.211E+00
   1    6    8     4     3    9.7275E+00  1.2689E-01   9.6006E+00  0.000E+00  0.000E+00  0.000E+00  1.06381E+03  6.256E-01  1.000E+01  3.500E-02  1.209E+00
   1    6    8     5     1    1.0432E+01  2.2686E-01   1.0205E+01  0.000E+00  0.000E+00  0.000E+00  1.05868E+03  6.790E-01  1.542E+01  6.166E-02  1.226E+00
   1    7    7     5     2    1.0205E+01  2.7894E-01   9.9265E+00  0.000E+00  0.000E+00  0.000E+00  1.05417E+03  6.732E-01  1.519E+01  7.594E-02  1.224E+00
   1    8    7     5     3    9.9265E+00  1.9221E-01   9.7343E+00  0.000E+00  0.000E+00  0.000E+00  1.04992E+03  6.676E-01  1.497E+01  5.241E-02  1.223E+00
   1    8    6     5     4    9.7343E+00  1.3577E-01   9.5985E+00  0.000E+00  0.000E+00  0.000E+00  1.04691E+03  6.637E-01  1.482E+01  3.706E-02  1.221E+00
   1    9    6     6     1    2.6193E+01  2.5512E-01   2.5938E+01  0.000E+00  0.000E+00  0.000E+00  1.04398E+03  1.252E+00  1.200E+01  6.000E-02  1.417E+00
   1   10    7     6     2    2.5938E+01  2.5468E-01   2.5683E+01  0.000E+00  0.000E+00  0.000E+00  1.03943E+03  1.245E+00  1.200E+01  6.000E-02  1.415E+00
   1   11    7     6     3    2.5683E+01  2.5424E-01   2.5429E+01  0.000E+00  0.000E+00  0.000E+00  1.03487E+03  1.237E+00  1.200E+01  6.000E-02  1.412E+00
   1   12    7     6     4    2.5429E+01  2.5379E-01   2.5175E+01  0.000E+00  0.000E+00  0.000E+00  1.03032E+03  1.230E+00  1.200E+01  6.000E-02  1.410E+00
   1   13    7     6     5    2.5175E+01  3.6184E-03   2.5171E+01  0.000E+00  0.000E+00  0.000E+00  1.02714E+03  1.226E+00  1.200E+01  2.400E-02  5.026E-02
   1   14    9     7     1    1.5000E+02  1.3368E+00   1.4866E+02  0.000E+00  0.000E+00  0.000E+00  1.03987E+03  2.288E+00  5.529E+01  5.593E-01  7.967E-01
   1   13    8     7     2    1.4866E+02  1.8520E+00   1.4681E+02  0.000E+00  0.000E+00  0.000E+00  1.03478E+03  2.279E+00  5.526E+01  6.148E-01  1.004E+00
   1   13    7     7     3    1.4681E+02  1.5107E+00   1.4530E+02  0.000E+00  0.000E+00  0.000E+00  1.02969E+03  2.270E+00  5.522E+01  5.584E-01  9.017E-01
   1   13    6     8     1    1.7047E+02  9.6938E-01   1.6950E+02  0.000E+00  0.000E+00  0.000E+00  1.02483E+03  2.952E+00  4.281E+01  4.362E-01  7.408E-01
   1   13    5     8     2    1.6950E+02  2.2765E-01   1.6927E+02  0.000E+00  0.000E+00  0.000E+00  1.01857E+03  2.948E+00  4.275E+01  4.356E-01  1.742E-01
   1   13    4     8     3    1.6927E+02 -2.2426E+00   1.7152E+02  0.000E+00  0.000E+00  0.000E+00  1.01233E+03  2.955E+00  4.284E+01  4.366E+00 -1.712E-01
   1   13    3     8     4    1.7152E+02 -3.5739E+00   1.7509E+02  0.000E+00  0.000E+00  0.000E+00  1.00610E+03  2.974E+00  4.312E+01  4.394E+00 -2.711E-01
   1   13    2     8     5    1.7509E+02 -2.5679E+00   1.7766E+02  0.000E+00  0.000E+00  0.000E+00  9.99868E+02  2.993E+00  4.340E+01  4.423E+00 -1.935E-01
   1   13    1     8     6    1.7766E+02 -1.9875E+00   1.7965E+02  0.000E+00  0.000E+00  0.000E+00  9.94883E+02  3.008E+00  4.361E+01  2.666E+00 -2.484E-01





UNSATURATED ZONE PACKAGE VOLUMETRIC BUDGET FOR  TIME STEP    30 STRESS PERIOD   24
  ------------------------------------------------------------------------------



     CUMULATIVE VOLUMES      L**3       RATES FOR THIS TIME STEP      L**3/T
     ------------------                 ------------------------

           IN:                                      IN:
           ---                                      ---
        INFILTRATION =  1003019458.8748          INFILTRATION =           0.8475

          OUT:                                     OUT:
          ----                                     ----
              UZF ET =   858652748.8972                UZF ET =           0.7500
        UZF RECHARGE =   144035887.9193          UZF RECHARGE =           0.0003

            IN - OUT =      330822.0583              IN - OUT =       9.7192E-02

          STORAGE:                                 STORAGE:
          --------                                 --------
      STORAGE CHANGE =      330807.6524        STORAGE CHANGE =       9.7192E-02

 PERCENT DISCREPANCY IS DIFFERENCE BETWEEN IN-OUT MINUS CHANGE IN STORAGE
 DIVIDED BY THE AVERAGE OF IN AND OUT TIMES 100

 PERCENT DISCREPANCY =           0.00     PERCENT DISCREPANCY =           0.00






1
  VOLUMETRIC BUDGET FOR AGRICULTURAL FIELDS AT  END OF TIME STEP   30, STRESS PERIOD  24
  ------------------------------------------------------------------------------

     CUMULATIVE VOLUMES      L**3       RATES FOR THIS TIME STEP      L**3/T
     ------------------                 ------------------------

           IN:                                      IN:
           ---                                      ---
               AG WELLS  =   951679488.0000                 AG WELLS  =           0.0000
      DIVERSION SEGMENTS =           0.0000        DIVERSION SEGMENTS =           0.0000
           GW IRRIGATION =           0.0000             GW IRRIGATION =           0.0000
           SW IRRIGATION =           0.0000             SW IRRIGATION =           0.0000
        SYSTEM LOSSES GW =           0.0000          SYSTEM LOSSES GW =           0.0000
        SYSTEM LOSSES SW =           0.0000          SYSTEM LOSSES SW =           0.0000

                TOTAL IN =   951679488.0000                  TOTAL IN =           0.0000

          OUT:                                     OUT:
          ----                                     ----
               AG WELLS  =           0.0000                 AG WELLS  =           0.0000
      DIVERSION SEGMENTS =           0.0000        DIVERSION SEGMENTS =           0.0000
           GW IRRIGATION =   951679488.0000             GW IRRIGATION =           0.0000
           SW IRRIGATION =           0.0000             SW IRRIGATION =           0.0000
        SYSTEM LOSSES GW =           0.0000          SYSTEM LOSSES GW =           0.0000
        SYSTEM LOSSES SW =           0.0000          SYSTEM LOSSES SW =           0.0000

               TOTAL OUT =   951679488.0000                 TOTAL OUT =           0.0000

                IN - OUT =           0.0000                  IN - OUT =           0.0000

     PERCENT DISCREPANCY =           0.00         PERCENT DISCREPANCY =           0.00



1
  VOLUMETRIC BUDGET FOR ENTIRE MODEL AT END OF TIME STEP   30, STRESS PERIOD  24
  ------------------------------------------------------------------------------

     CUMULATIVE VOLUMES      L**3       RATES FOR THIS TIME STEP      L**3/T
     ------------------                 ------------------------

           IN:                                      IN:
           ---                                      ---
             STORAGE     =  1195710208.0000               STORAGE     =           9.1130
       CONSTANT HEAD     =           0.0000         CONSTANT HEAD     =           0.0000
     HEAD DEP BOUNDS     =    17292642.0000       HEAD DEP BOUNDS     =           0.2858
      STREAM LEAKAGE     =   754537024.0000        STREAM LEAKAGE     =          11.7257
        UZF RECHARGE     =   144035840.0000          UZF RECHARGE     =       3.0773E-04
               GW ET     =           0.0000                 GW ET     =           0.0000
     SURFACE LEAKAGE     =           0.0000       SURFACE LEAKAGE     =           0.0000
           AG WELLS      =           0.0000             AG WELLS      =           0.0000

                TOTAL IN =  2111575808.0000                  TOTAL IN =          21.1248

          OUT:                                     OUT:
          ----                                     ----
             STORAGE     =   496998976.0000               STORAGE     =          10.4631
       CONSTANT HEAD     =           0.0000         CONSTANT HEAD     =           0.0000
     HEAD DEP BOUNDS     =    17823686.0000       HEAD DEP BOUNDS     =           0.2899
      STREAM LEAKAGE     =   627543424.0000        STREAM LEAKAGE     =          10.3718
        UZF RECHARGE     =           0.0000          UZF RECHARGE     =           0.0000
               GW ET     =    17516984.0000                 GW ET     =           0.0000
     SURFACE LEAKAGE     =           0.0000       SURFACE LEAKAGE     =           0.0000
           AG WELLS      =   951679488.0000             AG WELLS      =           0.0000

               TOTAL OUT =  2111562496.0000                 TOTAL OUT =          21.1248

                IN - OUT =       13312.0000                  IN - OUT =       9.5367E-06

     PERCENT DISCREPANCY =           0.00         PERCENT DISCREPANCY =           0.00






         TIME SUMMARY AT END OF TIME STEP   30 IN STRESS PERIOD   24
                    SECONDS     MINUTES      HOURS       DAYS        YEARS
                    -----------------------------------------------------------
   TIME STEP LENGTH  87667.      1461.1      24.352      1.0147     2.77799E-03
 STRESS PERIOD TIME 2.63000E+06  43833.      730.56      30.440     8.33397E-02
         TOTAL TIME 6.05767E+07 1.00961E+06  16827.      701.12      1.9196    
1
1
                            STRESS PERIOD NO.   25, LENGTH =   2630000.    
                            -----------------------------------------------

                              NUMBER OF TIME STEPS =    30

                               MULTIPLIER FOR DELT =     1.000

                            INITIAL TIME STEP SIZE =   87666.66    

 REUSING NON-PARAMETER GHB CELLS FROM LAST STRESS PERIOD

      2 GHB CELLS

 REUSING STREAM SEGMENT DATA FROM LAST STRESS PERIOD



            AREAL INFILTRATION RATE
 READING ON UNIT   19 WITH FORMAT: (FREE)              

            1           2           3           4           5           6           7           8           9          10
 ........................................................................................................................
   1   1.0000E-10  2.0000E-10   0.000       0.000       0.000       0.000       0.000       0.000       0.000       0.000    
   2   2.0000E-10  1.0000E-10  2.0000E-10   0.000       0.000      8.0000E-10  8.0000E-10  5.0000E-10   0.000       0.000    
   3    0.000      5.0000E-10  1.0000E-10  1.0000E-10  8.0000E-10  8.0000E-10  5.0000E-10  5.0000E-10   0.000       0.000    
   4   8.0000E-10  5.0000E-10  1.0000E-10  1.0000E-10  1.0000E-10  1.0000E-10  1.0000E-10  1.0000E-10  2.0000E-10   0.000    
   5   8.0000E-10  5.0000E-10  1.0000E-10  1.0000E-10  1.0000E-10  1.0000E-10  1.0000E-10  1.0000E-10  1.0000E-10  1.0000E-10
   6   8.0000E-10  5.0000E-10  5.0000E-10  2.0000E-10  2.0000E-10  1.0000E-10  1.0000E-10  1.0000E-10  1.0000E-10  5.0000E-10
   7   8.0000E-10  5.0000E-10  5.0000E-10  2.0000E-10  2.0000E-10  1.0000E-10  1.0000E-10  2.0000E-10  2.0000E-10   0.000    
   8    0.000      5.0000E-10  5.0000E-10  2.0000E-10  2.0000E-10  1.0000E-10  1.0000E-10  2.0000E-10  5.0000E-10   0.000    
   9    0.000      5.0000E-10  5.0000E-10  2.0000E-10  2.0000E-10  1.0000E-10  1.0000E-10  2.0000E-10  5.0000E-10   0.000    
  10    0.000      5.0000E-10  5.0000E-10  2.0000E-10  2.0000E-10  1.0000E-10  1.0000E-10  2.0000E-10  5.0000E-10  8.0000E-10
  11    0.000      1.0000E-10  1.0000E-10  1.0000E-10  1.0000E-10  1.0000E-10  1.0000E-10  2.0000E-10  5.0000E-10   0.000    
  12   1.0000E-10  1.0000E-10  1.0000E-10  1.0000E-10  1.0000E-10  1.0000E-10  1.0000E-10  1.0000E-10  2.0000E-10   0.000    
  13   1.0000E-10  1.0000E-10  2.0000E-10  2.0000E-10  2.0000E-10  2.0000E-10  2.0000E-10  1.0000E-10  1.0000E-10   0.000    
  14    0.000      2.0000E-10  5.0000E-10  5.0000E-10  5.0000E-10  5.0000E-10  5.0000E-10  2.0000E-10  1.0000E-10   0.000    
  15    0.000       0.000      8.0000E-10  8.0000E-10  8.0000E-10  8.0000E-10   0.000       0.000       0.000       0.000    

                  ET RATE =  5.000000E-10

 USING ET EXTINCTION DEPTH FROM PREVIOUS STRESS PERIOD. CURRENT PERIOD IS:      25

 USING EXTINCTION WATER CONTENT FROM PREVIOUS STRESS PERIOD. CURRENT PERIOD IS:      25

 USING AIR ENTRY PRESSURE FROM PREVIOUS STRESS PERIOD. CURRENT PERIOD IS:      25

 USING ROOT PRESSURE HEAD FROM PREVIOUS STRESS PERIOD. CURRENT PERIOD IS:      25

 USING ROOT ACTIVITY FROM PREVIOUS STRESS PERIOD. CURRENT PERIOD IS:      25

 PROCESSING AG STRESS PERIOD DATA

 READING AG STRESS PERIOD DATA

 READING IRRIGATION WELL

 END PROCESSING AG STRESS PERIOD DATA OPTIONS
 
 SOLVING FOR HEAD 
                                                   Max.-Head-Change                         Max.-Flux-Residual
  Residual-Control   Outer-Iter.   Inner-Iter.     Column Row Layer    Maximum-Head-Change  Column Row Layer    Maximum-Flux-Residual          L2-NORM 
          0                 1           2             4    7     1       0.2436741843E-01       4    7    1         0.1279146895E+01      0.3133124368E+01
          0                 2           2             4    7     1      -0.2369012598E-02       4    7    1        -0.1278460015E+00      0.3131951735E+00
          0                 3           2             4    7     1       0.1611993732E-03       4    7    1         0.8942461653E-02      0.2191226059E-01
          0                 4           1             4    7     1      -0.6406232034E-05       4    7    1        -0.3652875907E-03      0.8954089461E-03

    ------------------------------------------------
       NWT REQUIRED            4 OUTER ITERATIONS 
       AND A TOTAL OF          7 INNER ITERATIONS.
    ------------------------------------------------

 NO OUTPUT CONTROL FOR STRESS PERIOD   25   TIME STEP    1
 
 SOLVING FOR HEAD 
                                                   Max.-Head-Change                         Max.-Flux-Residual
  Residual-Control   Outer-Iter.   Inner-Iter.     Column Row Layer    Maximum-Head-Change  Column Row Layer    Maximum-Flux-Residual          L2-NORM 
          0                 1           2             4    7     1       0.2412032947E-01       4    7    1         0.1266088951E+01      0.3106381663E+01
          0                 2           2             4    7     1      -0.2344990286E-02       4    7    1        -0.1265408938E+00      0.3105209081E+00
          0                 3           2             4    7     1       0.1595647717E-03       4    7    1         0.8851172728E-02      0.2172508163E-01
          0                 4           1             4    7     1      -0.6341270710E-05       4    7    1        -0.3615585233E-03      0.8878285648E-03

    ------------------------------------------------
       NWT REQUIRED            4 OUTER ITERATIONS 
       AND A TOTAL OF          7 INNER ITERATIONS.
    ------------------------------------------------

 NO OUTPUT CONTROL FOR STRESS PERIOD   25   TIME STEP    2
 
 SOLVING FOR HEAD 
                                                   Max.-Head-Change                         Max.-Flux-Residual
  Residual-Control   Outer-Iter.   Inner-Iter.     Column Row Layer    Maximum-Head-Change  Column Row Layer    Maximum-Flux-Residual          L2-NORM 
          0                 1           2             4    7     1       0.2387728482E-01       4    7    1         0.1253248447E+01      0.3079368765E+01
          0                 2           2             4    7     1      -0.2321361173E-02       4    7    1        -0.1252575192E+00      0.3078211112E+00
          0                 3           2             4    7     1       0.1579569261E-03       4    7    1         0.8761403996E-02      0.2153623620E-01
          0                 4           1             4    7     1      -0.6277373165E-05       4    7    1        -0.3578915712E-03      0.8800702886E-03

    ------------------------------------------------
       NWT REQUIRED            4 OUTER ITERATIONS 
       AND A TOTAL OF          7 INNER ITERATIONS.
    ------------------------------------------------

 NO OUTPUT CONTROL FOR STRESS PERIOD   25   TIME STEP    3
 
 SOLVING FOR HEAD 
                                                   Max.-Head-Change                         Max.-Flux-Residual
  Residual-Control   Outer-Iter.   Inner-Iter.     Column Row Layer    Maximum-Head-Change  Column Row Layer    Maximum-Flux-Residual          L2-NORM 
          0                 1           2             4    7     1       0.2363828481E-01       4    7    1         0.1240624952E+01      0.3052750112E+01
          0                 2           2             4    7     1      -0.2298125292E-02       4    7    1        -0.1239958346E+00      0.3051606804E+00
          0                 3           2             4    7     1       0.1563758380E-03       4    7    1         0.8673152446E-02      0.2135013574E-01
          0                 4           1             4    7     1      -0.6214538593E-05       4    7    1        -0.3542865761E-03      0.8724729591E-03

    ------------------------------------------------
       NWT REQUIRED            4 OUTER ITERATIONS 
       AND A TOTAL OF          7 INNER ITERATIONS.
    ------------------------------------------------

 NO OUTPUT CONTROL FOR STRESS PERIOD   25   TIME STEP    4
 
 SOLVING FOR HEAD 
                                                   Max.-Head-Change                         Max.-Flux-Residual
  Residual-Control   Outer-Iter.   Inner-Iter.     Column Row Layer    Maximum-Head-Change  Column Row Layer    Maximum-Flux-Residual          L2-NORM 
          0                 1           2             4    7     1       0.2340305972E-01       4    7    1         0.1228203844E+01      0.3026512254E+01
          0                 2           2             4    7     1      -0.2275256421E-02       4    7    1        -0.1227543783E+00      0.3025382754E+00
          0                 3           2             4    7     1       0.1548197238E-03       4    7    1         0.8586315841E-02      0.2116668720E-01
          0                 4           1             4    7     1      -0.6152696882E-05       4    7    1        -0.3507394076E-03      0.8649789741E-03

    ------------------------------------------------
       NWT REQUIRED            4 OUTER ITERATIONS 
       AND A TOTAL OF          7 INNER ITERATIONS.
    ------------------------------------------------

 NO OUTPUT CONTROL FOR STRESS PERIOD   25   TIME STEP    5
 
 SOLVING FOR HEAD 
                                                   Max.-Head-Change                         Max.-Flux-Residual
  Residual-Control   Outer-Iter.   Inner-Iter.     Column Row Layer    Maximum-Head-Change  Column Row Layer    Maximum-Flux-Residual          L2-NORM 
          0                 1           2             4    7     1       0.2317148730E-01       4    7    1         0.1215978459E+01      0.3000635116E+01
          0                 2           2             4    7     1      -0.2252742671E-02       4    7    1        -0.1215324844E+00      0.2999518893E+00
          0                 3           2             4    7     1       0.1532877736E-03       4    7    1         0.8500847572E-02      0.2098575173E-01
          0                 4           1             4    7     1      -0.6091815449E-05       4    7    1        -0.3472481103E-03      0.8575803560E-03

    ------------------------------------------------
       NWT REQUIRED            4 OUTER ITERATIONS 
       AND A TOTAL OF          7 INNER ITERATIONS.
    ------------------------------------------------

 NO OUTPUT CONTROL FOR STRESS PERIOD   25   TIME STEP    6
 
 SOLVING FOR HEAD 
                                                   Max.-Head-Change                         Max.-Flux-Residual
  Residual-Control   Outer-Iter.   Inner-Iter.     Column Row Layer    Maximum-Head-Change  Column Row Layer    Maximum-Flux-Residual          L2-NORM 
          0                 1           2             4    7     1       0.2294371835E-01       4    7    1         0.1203957100E+01      0.2975125286E+01
          0                 2           2             4    7     1      -0.2230598704E-02       4    7    1        -0.1203309827E+00      0.2974022222E+00
          0                 3           2             4    7     1       0.1517809854E-03       4    7    1         0.8416805681E-02      0.2080740609E-01
          0                 4           1             4    7     1      -0.6031933785E-05       4    7    1        -0.3438150852E-03      0.8502893366E-03

    ------------------------------------------------
       NWT REQUIRED            4 OUTER ITERATIONS 
       AND A TOTAL OF          7 INNER ITERATIONS.
    ------------------------------------------------

 NO OUTPUT CONTROL FOR STRESS PERIOD   25   TIME STEP    7
 
 SOLVING FOR HEAD 
                                                   Max.-Head-Change                         Max.-Flux-Residual
  Residual-Control   Outer-Iter.   Inner-Iter.     Column Row Layer    Maximum-Head-Change  Column Row Layer    Maximum-Flux-Residual          L2-NORM 
          0                 1           2             4    7     1       0.2271923251E-01       4    7    1         0.1192110979E+01      0.2949963275E+01
          0                 2           2             4    7     1      -0.2208773932E-02       4    7    1        -0.1191469959E+00      0.2948873114E+00
          0                 3           2             4    7     1       0.1502959174E-03       4    7    1         0.8333988961E-02      0.2063150510E-01
          0                 4           1             4    7     1      -0.5972915233E-05       4    7    1        -0.3404321046E-03      0.8430980567E-03

    ------------------------------------------------
       NWT REQUIRED            4 OUTER ITERATIONS 
       AND A TOTAL OF          7 INNER ITERATIONS.
    ------------------------------------------------

 NO OUTPUT CONTROL FOR STRESS PERIOD   25   TIME STEP    8
 
 SOLVING FOR HEAD 
                                                   Max.-Head-Change                         Max.-Flux-Residual
  Residual-Control   Outer-Iter.   Inner-Iter.     Column Row Layer    Maximum-Head-Change  Column Row Layer    Maximum-Flux-Residual          L2-NORM 
          0                 1           2             4    7     1       0.2249833657E-01       4    7    1         0.1180457046E+01      0.2925157109E+01
          0                 2           2             4    7     1      -0.2187298178E-02       4    7    1        -0.1179822181E+00      0.2924079162E+00
          0                 3           2             4    7     1       0.1488345987E-03       4    7    1         0.8252515855E-02      0.2045805021E-01
          0                 4           1             4    7     1      -0.5914840957E-05       4    7    1        -0.3371040293E-03      0.8360112058E-03

    ------------------------------------------------
       NWT REQUIRED            4 OUTER ITERATIONS 
       AND A TOTAL OF          7 INNER ITERATIONS.
    ------------------------------------------------

 NO OUTPUT CONTROL FOR STRESS PERIOD   25   TIME STEP    9
 
 SOLVING FOR HEAD 
                                                   Max.-Head-Change                         Max.-Flux-Residual
  Residual-Control   Outer-Iter.   Inner-Iter.     Column Row Layer    Maximum-Head-Change  Column Row Layer    Maximum-Flux-Residual          L2-NORM 
          0                 1           2             4    7     1       0.2228065337E-01       4    7    1         0.1168974599E+01      0.2900686025E+01
          0                 2           2             4    7     1      -0.2166134773E-02       4    7    1        -0.1168345801E+00      0.2899620068E+00
          0                 3           2             4    7     1       0.1473945332E-03       4    7    1         0.8172241626E-02      0.2028696796E-01
          0                 4           1             4    7     1      -0.5857610566E-05       4    7    1        -0.3338249021E-03      0.8290301817E-03

    ------------------------------------------------
       NWT REQUIRED            4 OUTER ITERATIONS 
       AND A TOTAL OF          7 INNER ITERATIONS.
    ------------------------------------------------

 NO OUTPUT CONTROL FOR STRESS PERIOD   25   TIME STEP   10
 
 SOLVING FOR HEAD 
                                                   Max.-Head-Change                         Max.-Flux-Residual
  Residual-Control   Outer-Iter.   Inner-Iter.     Column Row Layer    Maximum-Head-Change  Column Row Layer    Maximum-Flux-Residual          L2-NORM 
          0                 1           2             4    7     1       0.2206622435E-01       4    7    1         0.1157666048E+01      0.2876541098E+01
          0                 2           2             4    7     1      -0.2145287750E-02       4    7    1        -0.1157043229E+00      0.2875486598E+00
          0                 3           2             4    7     1       0.1459759967E-03       4    7    1         0.8093183165E-02      0.2011813520E-01
          0                 4           1             4    7     1      -0.5801236610E-05       4    7    1        -0.3305954560E-03      0.8221502964E-03

    ------------------------------------------------
       NWT REQUIRED            4 OUTER ITERATIONS 
       AND A TOTAL OF          7 INNER ITERATIONS.
    ------------------------------------------------

 NO OUTPUT CONTROL FOR STRESS PERIOD   25   TIME STEP   11
 
 SOLVING FOR HEAD 
                                                   Max.-Head-Change                         Max.-Flux-Residual
  Residual-Control   Outer-Iter.   Inner-Iter.     Column Row Layer    Maximum-Head-Change  Column Row Layer    Maximum-Flux-Residual          L2-NORM 
          0                 1           2             4    7     1       0.2185482367E-01       4    7    1         0.1146518898E+01      0.2852724541E+01
          0                 2           2             4    7     1      -0.2124735148E-02       4    7    1        -0.1145901974E+00      0.2851681930E+00
          0                 3           2             4    7     1       0.1445774938E-03       4    7    1         0.8015253074E-02      0.1995162060E-01
          0                 4           1             4    7     1      -0.5745658185E-05       4    7    1        -0.3274120913E-03      0.8153230772E-03

    ------------------------------------------------
       NWT REQUIRED            4 OUTER ITERATIONS 
       AND A TOTAL OF          7 INNER ITERATIONS.
    ------------------------------------------------

 NO OUTPUT CONTROL FOR STRESS PERIOD   25   TIME STEP   12
 
 SOLVING FOR HEAD 
                                                   Max.-Head-Change                         Max.-Flux-Residual
  Residual-Control   Outer-Iter.   Inner-Iter.     Column Row Layer    Maximum-Head-Change  Column Row Layer    Maximum-Flux-Residual          L2-NORM 
          0                 1           2             4    7     1       0.2164663715E-01       4    7    1         0.1135543407E+01      0.2829225891E+01
          0                 2           2             4    7     1      -0.2104495034E-02       4    7    1        -0.1134932291E+00      0.2828194261E+00
          0                 3           2             4    7     1       0.1432002544E-03       4    7    1         0.7938523077E-02      0.1978745667E-01
          0                 4           1             4    7     1      -0.5690925372E-05       4    7    1        -0.3242777589E-03      0.8089610258E-03

    ------------------------------------------------
       NWT REQUIRED            4 OUTER ITERATIONS 
       AND A TOTAL OF          7 INNER ITERATIONS.
    ------------------------------------------------

 NO OUTPUT CONTROL FOR STRESS PERIOD   25   TIME STEP   13
 
 SOLVING FOR HEAD 
                                                   Max.-Head-Change                         Max.-Flux-Residual
  Residual-Control   Outer-Iter.   Inner-Iter.     Column Row Layer    Maximum-Head-Change  Column Row Layer    Maximum-Flux-Residual          L2-NORM 
          0                 1           2             4    7     1       0.2144130944E-01       4    7    1         0.1124719918E+01      0.2806047709E+01
          0                 2           2             4    7     1      -0.2084532860E-02       4    7    1        -0.1124114531E+00      0.2805026639E+00
          0                 3           2             4    7     1       0.1418419275E-03       4    7    1         0.7862855767E-02      0.1962524327E-01
          0                 4           1             4    7     1      -0.5636943768E-05       4    7    1        -0.3211868334E-03      0.8020092091E-03

    ------------------------------------------------
       NWT REQUIRED            4 OUTER ITERATIONS 
       AND A TOTAL OF          7 INNER ITERATIONS.
    ------------------------------------------------

 NO OUTPUT CONTROL FOR STRESS PERIOD   25   TIME STEP   14
 
 SOLVING FOR HEAD 
                                                   Max.-Head-Change                         Max.-Flux-Residual
  Residual-Control   Outer-Iter.   Inner-Iter.     Column Row Layer    Maximum-Head-Change  Column Row Layer    Maximum-Flux-Residual          L2-NORM 
          0                 1           2             4    7     1       0.2123903465E-01       4    7    1         0.1114059300E+01      0.2783171565E+01
          0                 2           2             4    7     1      -0.2064867498E-02       4    7    1        -0.1113459558E+00      0.2782161328E+00
          0                 3           2             4    7     1       0.1405037978E-03       4    7    1         0.7788327115E-02      0.1946528478E-01
          0                 4           1             4    7     1      -0.5583765293E-05       4    7    1        -0.3181424381E-03      0.7954648254E-03

    ------------------------------------------------
       NWT REQUIRED            4 OUTER ITERATIONS 
       AND A TOTAL OF          7 INNER ITERATIONS.
    ------------------------------------------------

 NO OUTPUT CONTROL FOR STRESS PERIOD   25   TIME STEP   15
 
 SOLVING FOR HEAD 
                                                   Max.-Head-Change                         Max.-Flux-Residual
  Residual-Control   Outer-Iter.   Inner-Iter.     Column Row Layer    Maximum-Head-Change  Column Row Layer    Maximum-Flux-Residual          L2-NORM 
          0                 1           2             4    7     1       0.2103946534E-01       4    7    1         0.1103542323E+01      0.2760596259E+01
          0                 2           2             4    7     1      -0.2045465168E-02       4    7    1        -0.1102948152E+00      0.2759596627E+00
          0                 3           2             4    7     1       0.1391835656E-03       4    7    1         0.7714802683E-02      0.1930744038E-01
          0                 4           1             4    7     1      -0.5531297616E-05       4    7    1        -0.3151390401E-03      0.7890193298E-03

    ------------------------------------------------
       NWT REQUIRED            4 OUTER ITERATIONS 
       AND A TOTAL OF          7 INNER ITERATIONS.
    ------------------------------------------------

 NO OUTPUT CONTROL FOR STRESS PERIOD   25   TIME STEP   16
 
 SOLVING FOR HEAD 
                                                   Max.-Head-Change                         Max.-Flux-Residual
  Residual-Control   Outer-Iter.   Inner-Iter.     Column Row Layer    Maximum-Head-Change  Column Row Layer    Maximum-Flux-Residual          L2-NORM 
          0                 1           2             4    7     1       0.2084280129E-01       4    7    1         0.1093180267E+01      0.2738316882E+01
          0                 2           2             4    7     1      -0.2026345293E-02       4    7    1        -0.1092591588E+00      0.2737327384E+00
          0                 3           2             4    7     1       0.1378825530E-03       4    7    1         0.7642361323E-02      0.1915166499E-01
          0                 4           1             4    7     1      -0.5479593580E-05       4    7    1        -0.3121798759E-03      0.7826423161E-03

    ------------------------------------------------
       NWT REQUIRED            4 OUTER ITERATIONS 
       AND A TOTAL OF          7 INNER ITERATIONS.
    ------------------------------------------------

 NO OUTPUT CONTROL FOR STRESS PERIOD   25   TIME STEP   17
 
 SOLVING FOR HEAD 
                                                   Max.-Head-Change                         Max.-Flux-Residual
  Residual-Control   Outer-Iter.   Inner-Iter.     Column Row Layer    Maximum-Head-Change  Column Row Layer    Maximum-Flux-Residual          L2-NORM 
          0                 1           2             4    7     1       0.2064870043E-01       4    7    1         0.1082954195E+01      0.2716327105E+01
          0                 2           2             4    7     1      -0.2007474619E-02       4    7    1        -0.1082370937E+00      0.2715347887E+00
          0                 3           2             4    7     1       0.1365984980E-03       4    7    1         0.7570870657E-02      0.1899792343E-01
          0                 4           1             4    7     1      -0.5428563732E-05       4    7    1        -0.3092595816E-03      0.7763946851E-03

    ------------------------------------------------
       NWT REQUIRED            4 OUTER ITERATIONS 
       AND A TOTAL OF          7 INNER ITERATIONS.
    ------------------------------------------------

 NO OUTPUT CONTROL FOR STRESS PERIOD   25   TIME STEP   18
 
 SOLVING FOR HEAD 
                                                   Max.-Head-Change                         Max.-Flux-Residual
  Residual-Control   Outer-Iter.   Inner-Iter.     Column Row Layer    Maximum-Head-Change  Column Row Layer    Maximum-Flux-Residual          L2-NORM 
          0                 1           2             4    7     1       0.2045737481E-01       4    7    1         0.1072875669E+01      0.2694626229E+01
          0                 2           2             4    7     1      -0.1988873810E-02       4    7    1        -0.1072297756E+00      0.2693744176E+00
          0                 3           2             4    7     1       0.1353328056E-03       4    7    1         0.7500411500E-02      0.1884676729E-01
          0                 4           1             4    7     1      -0.5378263677E-05       4    7    1        -0.3063813970E-03      0.7701920167E-03

    ------------------------------------------------
       NWT REQUIRED            4 OUTER ITERATIONS 
       AND A TOTAL OF          7 INNER ITERATIONS.
    ------------------------------------------------

 NO OUTPUT CONTROL FOR STRESS PERIOD   25   TIME STEP   19
 
 SOLVING FOR HEAD 
                                                   Max.-Head-Change                         Max.-Flux-Residual
  Residual-Control   Outer-Iter.   Inner-Iter.     Column Row Layer    Maximum-Head-Change  Column Row Layer    Maximum-Flux-Residual          L2-NORM 
          0                 1           2             4    7     1       0.2026848450E-01       4    7    1         0.1062926380E+01      0.2673200645E+01
          0                 2           2             4    7     1      -0.1970509661E-02       4    7    1        -0.1062353746E+00      0.2672241103E+00
          0                 3           2             4    7     1       0.1340832172E-03       4    7    1         0.7430855859E-02      0.1869636979E-01
          0                 4           1             4    7     1      -0.5328604078E-05       4    7    1        -0.3035401446E-03      0.7640612613E-03

    ------------------------------------------------
       NWT REQUIRED            4 OUTER ITERATIONS 
       AND A TOTAL OF          7 INNER ITERATIONS.
    ------------------------------------------------

 NO OUTPUT CONTROL FOR STRESS PERIOD   25   TIME STEP   20
 
 SOLVING FOR HEAD 
                                                   Max.-Head-Change                         Max.-Flux-Residual
  Residual-Control   Outer-Iter.   Inner-Iter.     Column Row Layer    Maximum-Head-Change  Column Row Layer    Maximum-Flux-Residual          L2-NORM 
          0                 1           2             4    7     1       0.2008224411E-01       4    7    1         0.1053118015E+01      0.2651998152E+01
          0                 2           2             4    7     1      -0.1952403197E-02       4    7    1        -0.1052550586E+00      0.2651048248E+00
          0                 3           2             4    7     1       0.1328511627E-03       4    7    1         0.7362285439E-02      0.1854807739E-01
          0                 4           1             4    7     1      -0.5279640885E-05       4    7    1        -0.3007391178E-03      0.7579985618E-03

    ------------------------------------------------
       NWT REQUIRED            4 OUTER ITERATIONS 
       AND A TOTAL OF          7 INNER ITERATIONS.
    ------------------------------------------------

 NO OUTPUT CONTROL FOR STRESS PERIOD   25   TIME STEP   21
 
 SOLVING FOR HEAD 
                                                   Max.-Head-Change                         Max.-Flux-Residual
  Residual-Control   Outer-Iter.   Inner-Iter.     Column Row Layer    Maximum-Head-Change  Column Row Layer    Maximum-Flux-Residual          L2-NORM 
          0                 1           2             4    7     1       0.1989845534E-01       4    7    1         0.1043439714E+01      0.2631066181E+01
          0                 2           2             4    7     1      -0.1934535082E-02       4    7    1        -0.1042877423E+00      0.2630125562E+00
          0                 3           2             4    7     1       0.1316353264E-03       4    7    1         0.7294624296E-02      0.1840171368E-01
          0                 4           1             4    7     1      -0.5231322061E-05       4    7    1        -0.2979752389E-03      0.7519947202E-03

    ------------------------------------------------
       NWT REQUIRED            4 OUTER ITERATIONS 
       AND A TOTAL OF          7 INNER ITERATIONS.
    ------------------------------------------------

 NO OUTPUT CONTROL FOR STRESS PERIOD   25   TIME STEP   22
 
 SOLVING FOR HEAD 
                                                   Max.-Head-Change                         Max.-Flux-Residual
  Residual-Control   Outer-Iter.   Inner-Iter.     Column Row Layer    Maximum-Head-Change  Column Row Layer    Maximum-Flux-Residual          L2-NORM 
          0                 1           2             4    7     1       0.1971719842E-01       4    7    1         0.1033895852E+01      0.2610409989E+01
          0                 2           2             4    7     1      -0.1916913119E-02       4    7    1        -0.1033338629E+00      0.2609478668E+00
          0                 3           2             4    7     1       0.1304362397E-03       4    7    1         0.7227903042E-02      0.1825728240E-01
          0                 4           1             4    7     1      -0.5183668675E-05       4    7    1        -0.2952497443E-03      0.7460783412E-03

    ------------------------------------------------
       NWT REQUIRED            4 OUTER ITERATIONS 
       AND A TOTAL OF          7 INNER ITERATIONS.
    ------------------------------------------------

 NO OUTPUT CONTROL FOR STRESS PERIOD   25   TIME STEP   23
 
 SOLVING FOR HEAD 
                                                   Max.-Head-Change                         Max.-Flux-Residual
  Residual-Control   Outer-Iter.   Inner-Iter.     Column Row Layer    Maximum-Head-Change  Column Row Layer    Maximum-Flux-Residual          L2-NORM 
          0                 1           2             4    7     1       0.1953814503E-01       4    7    1         0.1024468608E+01      0.2590011174E+01
          0                 2           2             4    7     1      -0.1899505388E-02       4    7    1        -0.1023916392E+00      0.2589088910E+00
          0                 3           2             4    7     1       0.1292517308E-03       4    7    1         0.7161997102E-02      0.1811464270E-01
          0                 4           1             4    7     1      -0.5136594726E-05       4    7    1        -0.2925575632E-03      0.7402958049E-03

    ------------------------------------------------
       NWT REQUIRED            4 OUTER ITERATIONS 
       AND A TOTAL OF          7 INNER ITERATIONS.
    ------------------------------------------------

 NO OUTPUT CONTROL FOR STRESS PERIOD   25   TIME STEP   24
 
 SOLVING FOR HEAD 
                                                   Max.-Head-Change                         Max.-Flux-Residual
  Residual-Control   Outer-Iter.   Inner-Iter.     Column Row Layer    Maximum-Head-Change  Column Row Layer    Maximum-Flux-Residual          L2-NORM 
          0                 1           2             4    7     1       0.1936151901E-01       4    7    1         0.1015170266E+01      0.2569865401E+01
          0                 2           2             4    7     1      -0.1882333649E-02       4    7    1        -0.1014622991E+00      0.2568949486E+00
          0                 3           2             4    7     1       0.1280832800E-03       4    7    1         0.7096992312E-02      0.1797374042E-01
          0                 4           1             4    7     1      -0.5090159505E-05       4    7    1        -0.2899021974E-03      0.7345064677E-03

    ------------------------------------------------
       NWT REQUIRED            4 OUTER ITERATIONS 
       AND A TOTAL OF          7 INNER ITERATIONS.
    ------------------------------------------------

 NO OUTPUT CONTROL FOR STRESS PERIOD   25   TIME STEP   25
 
 SOLVING FOR HEAD 
                                                   Max.-Head-Change                         Max.-Flux-Residual
  Residual-Control   Outer-Iter.   Inner-Iter.     Column Row Layer    Maximum-Head-Change  Column Row Layer    Maximum-Flux-Residual          L2-NORM 
          0                 1           2             4    7     1       0.1918726616E-01       4    7    1         0.1005997779E+01      0.2549978381E+01
          0                 2           2             4    7     1      -0.1865426993E-02       4    7    1        -0.1005455380E+00      0.2549522778E+00
          0                 3           2             4    7     1       0.1269328662E-03       4    7    1         0.7032867331E-02      0.1783784956E-01
          0                 4           1             4    7     1      -0.5044441069E-05       4    7    1        -0.2872827745E-03      0.7289696838E-03

    ------------------------------------------------
       NWT REQUIRED            4 OUTER ITERATIONS 
       AND A TOTAL OF          7 INNER ITERATIONS.
    ------------------------------------------------

 NO OUTPUT CONTROL FOR STRESS PERIOD   25   TIME STEP   26
 
 SOLVING FOR HEAD 
                                                   Max.-Head-Change                         Max.-Flux-Residual
  Residual-Control   Outer-Iter.   Inner-Iter.     Column Row Layer    Maximum-Head-Change  Column Row Layer    Maximum-Flux-Residual          L2-NORM 
          0                 1           2             4    7     1       0.1901506389E-01       4    7    1         0.9969391781E+00      0.2530307273E+01
          0                 2           2             4    7     1      -0.1848651008E-02       4    7    1        -0.9964016009E-01      0.2529411814E+00
          0                 3           2             4    7     1       0.1257913458E-03       4    7    1         0.6969538724E-02      0.1769717965E-01
          0                 4           1             4    7     1      -0.4999075498E-05       4    7    1        -0.2846958773E-03      0.7232276215E-03

    ------------------------------------------------
       NWT REQUIRED            4 OUTER ITERATIONS 
       AND A TOTAL OF          7 INNER ITERATIONS.
    ------------------------------------------------

 NO OUTPUT CONTROL FOR STRESS PERIOD   25   TIME STEP   27
 
 SOLVING FOR HEAD 
                                                   Max.-Head-Change                         Max.-Flux-Residual
  Residual-Control   Outer-Iter.   Inner-Iter.     Column Row Layer    Maximum-Head-Change  Column Row Layer    Maximum-Flux-Residual          L2-NORM 
          0                 1           2             4    7     1       0.1884498402E-01       4    7    1         0.9879905571E+00      0.2510841240E+01
          0                 2           2             4    7     1      -0.1832115702E-02       4    7    1        -0.9874577418E-01      0.2509954627E+00
          0                 3           2             4    7     1       0.1246662018E-03       4    7    1         0.6906978947E-02      0.1756104538E-01
          0                 4           1             4    7     1      -0.4954361090E-05       4    7    1        -0.2821403814E-03      0.7176482563E-03

    ------------------------------------------------
       NWT REQUIRED            4 OUTER ITERATIONS 
       AND A TOTAL OF          7 INNER ITERATIONS.
    ------------------------------------------------

 NO OUTPUT CONTROL FOR STRESS PERIOD   25   TIME STEP   28
 
 SOLVING FOR HEAD 
                                                   Max.-Head-Change                         Max.-Flux-Residual
  Residual-Control   Outer-Iter.   Inner-Iter.     Column Row Layer    Maximum-Head-Change  Column Row Layer    Maximum-Flux-Residual          L2-NORM 
          0                 1           2             4    7     1       0.1867708765E-01       4    7    1         0.9791574762E+00      0.2491625529E+01
          0                 2           2             4    7     1      -0.1815792680E-02       4    7    1        -0.9786293626E-01      0.2490747209E+00
          0                 3           2             4    7     1       0.1235555021E-03       4    7    1         0.6845226882E-02      0.1742666821E-01
          0                 4           1             4    7     1      -0.4910221053E-05       4    7    1        -0.2796178928E-03      0.7121656684E-03

    ------------------------------------------------
       NWT REQUIRED            4 OUTER ITERATIONS 
       AND A TOTAL OF          7 INNER ITERATIONS.
    ------------------------------------------------

 NO OUTPUT CONTROL FOR STRESS PERIOD   25   TIME STEP   29
 
 SOLVING FOR HEAD 
                                                   Max.-Head-Change                         Max.-Flux-Residual
  Residual-Control   Outer-Iter.   Inner-Iter.     Column Row Layer    Maximum-Head-Change  Column Row Layer    Maximum-Flux-Residual          L2-NORM 
          0                 1           2             4    7     1       0.1851118735E-01       4    7    1         0.9704302772E+00      0.2476631484E+01
          0                 2           2             4    7     1      -0.1799663719E-02       4    7    1        -0.9699068103E-01      0.2475669694E+00
          0                 3           2             4    7     1       0.1224580073E-03       4    7    1         0.6784215055E-02      0.1732038995E-01
          0                 4           1             4    7     1      -0.4866605076E-05       4    7    1        -0.2771256291E-03      0.7077537588E-03

    ------------------------------------------------
       NWT REQUIRED            4 OUTER ITERATIONS 
       AND A TOTAL OF          7 INNER ITERATIONS.
    ------------------------------------------------

 NO OUTPUT CONTROL FOR STRESS PERIOD   25   TIME STEP   30



 STREAM LISTING     PERIOD     25   STEP       30

 LAYER ROW COL. STREAM  RCH.  FLOW INTO     FLOW TO   FLOW OUT OF   OVRLND.     DIRECT     STREAM       STREAM     STREAM     STREAM   STREAMBED  STREAMBED
                SEG.NO.  NO.  STRM. RCH.    AQUIFER    STRM. RCH.    RUNOFF     PRECIP       ET          HEAD       DEPTH      WIDTH   CONDCTNC.   GRADIENT

   1    1    1     1     1    1.8461E+01  2.1075E-01   1.8250E+01  0.000E+00  0.000E+00  0.000E+00  1.09412E+03  1.073E+00  1.150E+01  5.174E-02  1.358E+00
   1    2    2     1     2    1.8250E+01  3.2508E-01   1.7925E+01  0.000E+00  0.000E+00  0.000E+00  1.08913E+03  1.068E+00  1.141E+01  7.990E-02  1.356E+00
   1    3    3     1     3    1.7925E+01  2.7598E-01   1.7649E+01  0.000E+00  0.000E+00  0.000E+00  1.08348E+03  1.063E+00  1.132E+01  6.792E-02  1.354E+00
   1    3    4     1     4    1.7649E+01  2.5310E-01   1.7396E+01  0.000E+00  0.000E+00  0.000E+00  1.07847E+03  1.059E+00  1.124E+01  6.236E-02  1.353E+00
   1    4    5     2     1    1.5396E+01  3.0400E-01   1.5092E+01  0.000E+00  0.000E+00  0.000E+00  1.07283E+03  8.974E-01  1.200E+01  7.800E-02  1.299E+00
   1    5    6     2     2    1.5092E+01  2.3327E-01   1.4859E+01  0.000E+00  0.000E+00  0.000E+00  1.06740E+03  8.879E-01  1.200E+01  6.000E-02  1.296E+00
   1    6    6     2     3    1.4859E+01  2.3278E-01   1.4626E+01  0.000E+00  0.000E+00  0.000E+00  1.06267E+03  8.796E-01  1.200E+01  6.000E-02  1.293E+00
   1    7    6     2     4    1.4626E+01  2.3227E-01   1.4394E+01  0.000E+00  0.000E+00  0.000E+00  1.05795E+03  8.712E-01  1.200E+01  6.000E-02  1.290E+00
   1    8    6     2     5    1.4394E+01  2.3177E-01   1.4162E+01  0.000E+00  0.000E+00  0.000E+00  1.05322E+03  8.629E-01  1.200E+01  6.000E-02  1.288E+00
   1    3    5     3     1    2.0000E+00  2.8252E-01   1.7175E+00  0.000E+00  0.000E+00  0.000E+00  1.07555E+03  1.909E+00  9.636E+00  7.227E-02  1.955E+00
   1    3    6     3     2    1.7175E+00  2.4905E-01   1.4684E+00  0.000E+00  0.000E+00  0.000E+00  1.07264E+03  1.727E+00  8.909E+00  6.682E-02  1.864E+00
   1    3    7     3     3    1.4684E+00  1.9718E-01   1.2712E+00  0.000E+00  0.000E+00  0.000E+00  1.06987E+03  1.555E+00  8.218E+00  5.547E-02  1.777E+00
   1    4    8     3     4    1.2712E+00  2.2567E-01   1.0456E+00  0.000E+00  0.000E+00  0.000E+00  1.06682E+03  1.364E+00  7.455E+00  6.709E-02  1.682E+00
   1    5    8     3     5    1.0456E+00  1.5790E-01   8.8768E-01  0.000E+00  0.000E+00  0.000E+00  1.06362E+03  1.164E+00  6.655E+00  4.991E-02  1.582E+00
   1    6    8     3     6    8.8768E-01  5.5980E-02   8.3170E-01  0.000E+00  0.000E+00  0.000E+00  1.06158E+03  1.036E+00  6.145E+00  1.844E-02  1.518E+00
   1    5   10     4     1    1.0000E+01  9.0919E-02   9.9091E+00  0.000E+00  0.000E+00  0.000E+00  1.07836E+03  6.368E-01  1.000E+01  2.500E-02  1.212E+00
   1    5    9     4     2    9.9091E+00  1.8158E-01   9.7275E+00  0.000E+00  0.000E+00  0.000E+00  1.07154E+03  6.315E-01  1.000E+01  5.000E-02  1.211E+00
   1    6    8     4     3    9.7275E+00  1.2689E-01   9.6006E+00  0.000E+00  0.000E+00  0.000E+00  1.06381E+03  6.256E-01  1.000E+01  3.500E-02  1.209E+00
   1    6    8     5     1    1.0432E+01  2.2686E-01   1.0205E+01  0.000E+00  0.000E+00  0.000E+00  1.05868E+03  6.790E-01  1.542E+01  6.166E-02  1.226E+00
   1    7    7     5     2    1.0205E+01  2.7894E-01   9.9265E+00  0.000E+00  0.000E+00  0.000E+00  1.05417E+03  6.732E-01  1.519E+01  7.594E-02  1.224E+00
   1    8    7     5     3    9.9265E+00  1.9221E-01   9.7343E+00  0.000E+00  0.000E+00  0.000E+00  1.04992E+03  6.676E-01  1.497E+01  5.241E-02  1.223E+00
   1    8    6     5     4    9.7343E+00  1.3577E-01   9.5985E+00  0.000E+00  0.000E+00  0.000E+00  1.04691E+03  6.637E-01  1.482E+01  3.706E-02  1.221E+00
   1    9    6     6     1    2.3760E+01  2.5084E-01   2.3510E+01  0.000E+00  0.000E+00  0.000E+00  1.04391E+03  1.181E+00  1.200E+01  6.000E-02  1.394E+00
   1   10    7     6     2    2.3510E+01  2.5038E-01   2.3259E+01  0.000E+00  0.000E+00  0.000E+00  1.03935E+03  1.173E+00  1.200E+01  6.000E-02  1.391E+00
   1   11    7     6     3    2.3259E+01  2.4993E-01   2.3009E+01  0.000E+00  0.000E+00  0.000E+00  1.03480E+03  1.166E+00  1.200E+01  6.000E-02  1.389E+00
   1   12    7     6     4    2.3009E+01  2.4948E-01   2.2760E+01  0.000E+00  0.000E+00  0.000E+00  1.03025E+03  1.158E+00  1.200E+01  6.000E-02  1.386E+00
   1   13    7     6     5    2.2760E+01  2.6342E-03   2.2757E+01  0.000E+00  0.000E+00  0.000E+00  1.02706E+03  1.154E+00  1.200E+01  2.400E-02  3.659E-02
   1   14    9     7     1    1.5000E+02  1.3380E+00   1.4866E+02  0.000E+00  0.000E+00  0.000E+00  1.03987E+03  2.288E+00  5.529E+01  5.593E-01  7.974E-01
   1   13    8     7     2    1.4866E+02  1.8592E+00   1.4680E+02  0.000E+00  0.000E+00  0.000E+00  1.03478E+03  2.279E+00  5.526E+01  6.148E-01  1.008E+00
   1   13    7     7     3    1.4680E+02  1.5279E+00   1.4527E+02  0.000E+00  0.000E+00  0.000E+00  1.02969E+03  2.270E+00  5.522E+01  5.584E-01  9.120E-01
   1   13    6     8     1    1.6803E+02  9.7637E-01   1.6706E+02  0.000E+00  0.000E+00  0.000E+00  1.02481E+03  2.936E+00  4.257E+01  4.338E-01  7.502E-01
   1   13    5     8     2    1.6706E+02  2.3798E-01   1.6682E+02  0.000E+00  0.000E+00  0.000E+00  1.01856E+03  2.932E+00  4.252E+01  4.333E-01  1.831E-01
   1   13    4     8     3    1.6682E+02 -2.2214E+00   1.6904E+02  0.000E+00  0.000E+00  0.000E+00  1.01231E+03  2.939E+00  4.261E+01  4.342E+00 -1.705E-01
   1   13    3     8     4    1.6904E+02 -3.5734E+00   1.7261E+02  0.000E+00  0.000E+00  0.000E+00  1.00608E+03  2.958E+00  4.288E+01  4.370E+00 -2.726E-01
   1   13    2     8     5    1.7261E+02 -2.5907E+00   1.7520E+02  0.000E+00  0.000E+00  0.000E+00  9.99852E+02  2.977E+00  4.317E+01  4.400E+00 -1.963E-01
   1   13    1     8     6    1.7520E+02 -2.0005E+00   1.7720E+02  0.000E+00  0.000E+00  0.000E+00  9.94867E+02  2.992E+00  4.339E+01  2.653E+00 -2.514E-01





UNSATURATED ZONE PACKAGE VOLUMETRIC BUDGET FOR  TIME STEP    30 STRESS PERIOD   25
  ------------------------------------------------------------------------------



     CUMULATIVE VOLUMES      L**3       RATES FOR THIS TIME STEP      L**3/T
     ------------------                 ------------------------

           IN:                                      IN:
           ---                                      ---
        INFILTRATION =  1005248383.7476          INFILTRATION =           0.8475

          OUT:                                     OUT:
          ----                                     ----
              UZF ET =   860625248.7865                UZF ET =           0.7500
        UZF RECHARGE =   144036594.4434          UZF RECHARGE =           0.0002

            IN - OUT =      586540.5176              IN - OUT =       9.7264E-02

          STORAGE:                                 STORAGE:
          --------                                 --------
      STORAGE CHANGE =      586526.1314        STORAGE CHANGE =       9.7264E-02

 PERCENT DISCREPANCY IS DIFFERENCE BETWEEN IN-OUT MINUS CHANGE IN STORAGE
 DIVIDED BY THE AVERAGE OF IN AND OUT TIMES 100

 PERCENT DISCREPANCY =           0.00     PERCENT DISCREPANCY =           0.00






1
  VOLUMETRIC BUDGET FOR AGRICULTURAL FIELDS AT  END OF TIME STEP   30, STRESS PERIOD  25
  ------------------------------------------------------------------------------

     CUMULATIVE VOLUMES      L**3       RATES FOR THIS TIME STEP      L**3/T
     ------------------                 ------------------------

           IN:                                      IN:
           ---                                      ---
               AG WELLS  =   951679488.0000                 AG WELLS  =           0.0000
      DIVERSION SEGMENTS =           0.0000        DIVERSION SEGMENTS =           0.0000
           GW IRRIGATION =           0.0000             GW IRRIGATION =           0.0000
           SW IRRIGATION =           0.0000             SW IRRIGATION =           0.0000
        SYSTEM LOSSES GW =           0.0000          SYSTEM LOSSES GW =           0.0000
        SYSTEM LOSSES SW =           0.0000          SYSTEM LOSSES SW =           0.0000

                TOTAL IN =   951679488.0000                  TOTAL IN =           0.0000

          OUT:                                     OUT:
          ----                                     ----
               AG WELLS  =           0.0000                 AG WELLS  =           0.0000
      DIVERSION SEGMENTS =           0.0000        DIVERSION SEGMENTS =           0.0000
           GW IRRIGATION =   951679488.0000             GW IRRIGATION =           0.0000
           SW IRRIGATION =           0.0000             SW IRRIGATION =           0.0000
        SYSTEM LOSSES GW =           0.0000          SYSTEM LOSSES GW =           0.0000
        SYSTEM LOSSES SW =           0.0000          SYSTEM LOSSES SW =           0.0000

               TOTAL OUT =   951679488.0000                 TOTAL OUT =           0.0000

                IN - OUT =           0.0000                  IN - OUT =           0.0000

     PERCENT DISCREPANCY =           0.00         PERCENT DISCREPANCY =           0.00



1
  VOLUMETRIC BUDGET FOR ENTIRE MODEL AT END OF TIME STEP   30, STRESS PERIOD  25
  ------------------------------------------------------------------------------

     CUMULATIVE VOLUMES      L**3       RATES FOR THIS TIME STEP      L**3/T
     ------------------                 ------------------------

           IN:                                      IN:
           ---                                      ---
             STORAGE     =  1217090944.0000               STORAGE     =           7.4092
       CONSTANT HEAD     =           0.0000         CONSTANT HEAD     =           0.0000
     HEAD DEP BOUNDS     =    18044474.0000       HEAD DEP BOUNDS     =           0.2859
      STREAM LEAKAGE     =   785311104.0000        STREAM LEAKAGE     =          11.6433
        UZF RECHARGE     =   144036512.0000          UZF RECHARGE     =       2.3604E-04
               GW ET     =           0.0000                 GW ET     =           0.0000
     SURFACE LEAKAGE     =           0.0000       SURFACE LEAKAGE     =           0.0000
           AG WELLS      =           0.0000             AG WELLS      =           0.0000

                TOTAL IN =  2164483072.0000                  TOTAL IN =          19.3386

          OUT:                                     OUT:
          ----                                     ----
             STORAGE     =   521920192.0000               STORAGE     =           8.6630
       CONSTANT HEAD     =           0.0000         CONSTANT HEAD     =           0.0000
     HEAD DEP BOUNDS     =    18585640.0000       HEAD DEP BOUNDS     =           0.2896
      STREAM LEAKAGE     =   654767232.0000        STREAM LEAKAGE     =          10.3860
        UZF RECHARGE     =           0.0000          UZF RECHARGE     =           0.0000
               GW ET     =    17516984.0000                 GW ET     =           0.0000
     SURFACE LEAKAGE     =           0.0000       SURFACE LEAKAGE     =           0.0000
           AG WELLS      =   951679488.0000             AG WELLS      =           0.0000

               TOTAL OUT =  2164469504.0000                 TOTAL OUT =          19.3386

                IN - OUT =       13568.0000                  IN - OUT =       1.1444E-05

     PERCENT DISCREPANCY =           0.00         PERCENT DISCREPANCY =           0.00






         TIME SUMMARY AT END OF TIME STEP   30 IN STRESS PERIOD   25
                    SECONDS     MINUTES      HOURS       DAYS        YEARS
                    -----------------------------------------------------------
   TIME STEP LENGTH  87667.      1461.1      24.352      1.0147     2.77799E-03
 STRESS PERIOD TIME 2.63000E+06  43833.      730.56      30.440     8.33397E-02
         TOTAL TIME 6.32067E+07 1.05345E+06  17557.      731.56      2.0029    
1
1
                            STRESS PERIOD NO.   26, LENGTH =   2630000.    
                            -----------------------------------------------

                              NUMBER OF TIME STEPS =    30

                               MULTIPLIER FOR DELT =     1.000

                            INITIAL TIME STEP SIZE =   87666.66    

 REUSING NON-PARAMETER GHB CELLS FROM LAST STRESS PERIOD

      2 GHB CELLS

 REUSING STREAM SEGMENT DATA FROM LAST STRESS PERIOD



            AREAL INFILTRATION RATE
 READING ON UNIT   19 WITH FORMAT: (FREE)              

            1           2           3           4           5           6           7           8           9          10
 ........................................................................................................................
   1   1.0000E-10  2.0000E-10   0.000       0.000       0.000       0.000       0.000       0.000       0.000       0.000    
   2   2.0000E-10  1.0000E-10  2.0000E-10   0.000       0.000      8.0000E-10  8.0000E-10  5.0000E-10   0.000       0.000    
   3    0.000      5.0000E-10  1.0000E-10  1.0000E-10  8.0000E-10  8.0000E-10  5.0000E-10  5.0000E-10   0.000       0.000    
   4   8.0000E-10  5.0000E-10  1.0000E-10  1.0000E-10  1.0000E-10  1.0000E-10  1.0000E-10  1.0000E-10  2.0000E-10   0.000    
   5   8.0000E-10  5.0000E-10  1.0000E-10  1.0000E-10  1.0000E-10  1.0000E-10  1.0000E-10  1.0000E-10  1.0000E-10  1.0000E-10
   6   8.0000E-10  5.0000E-10  5.0000E-10  2.0000E-10  2.0000E-10  1.0000E-10  1.0000E-10  1.0000E-10  1.0000E-10  5.0000E-10
   7   8.0000E-10  5.0000E-10  5.0000E-10  2.0000E-10  2.0000E-10  1.0000E-10  1.0000E-10  2.0000E-10  2.0000E-10   0.000    
   8    0.000      5.0000E-10  5.0000E-10  2.0000E-10  2.0000E-10  1.0000E-10  1.0000E-10  2.0000E-10  5.0000E-10   0.000    
   9    0.000      5.0000E-10  5.0000E-10  2.0000E-10  2.0000E-10  1.0000E-10  1.0000E-10  2.0000E-10  5.0000E-10   0.000    
  10    0.000      5.0000E-10  5.0000E-10  2.0000E-10  2.0000E-10  1.0000E-10  1.0000E-10  2.0000E-10  5.0000E-10  8.0000E-10
  11    0.000      1.0000E-10  1.0000E-10  1.0000E-10  1.0000E-10  1.0000E-10  1.0000E-10  2.0000E-10  5.0000E-10   0.000    
  12   1.0000E-10  1.0000E-10  1.0000E-10  1.0000E-10  1.0000E-10  1.0000E-10  1.0000E-10  1.0000E-10  2.0000E-10   0.000    
  13   1.0000E-10  1.0000E-10  2.0000E-10  2.0000E-10  2.0000E-10  2.0000E-10  2.0000E-10  1.0000E-10  1.0000E-10   0.000    
  14    0.000      2.0000E-10  5.0000E-10  5.0000E-10  5.0000E-10  5.0000E-10  5.0000E-10  2.0000E-10  1.0000E-10   0.000    
  15    0.000       0.000      8.0000E-10  8.0000E-10  8.0000E-10  8.0000E-10   0.000       0.000       0.000       0.000    

                  ET RATE =  5.000000E-10

 USING ET EXTINCTION DEPTH FROM PREVIOUS STRESS PERIOD. CURRENT PERIOD IS:      26

 USING EXTINCTION WATER CONTENT FROM PREVIOUS STRESS PERIOD. CURRENT PERIOD IS:      26

 USING AIR ENTRY PRESSURE FROM PREVIOUS STRESS PERIOD. CURRENT PERIOD IS:      26

 USING ROOT PRESSURE HEAD FROM PREVIOUS STRESS PERIOD. CURRENT PERIOD IS:      26

 USING ROOT ACTIVITY FROM PREVIOUS STRESS PERIOD. CURRENT PERIOD IS:      26

 PROCESSING AG STRESS PERIOD DATA

 READING AG STRESS PERIOD DATA

 READING IRRIGATION WELL

 END PROCESSING AG STRESS PERIOD DATA OPTIONS
 
 SOLVING FOR HEAD 
                                                   Max.-Head-Change                         Max.-Flux-Residual
  Residual-Control   Outer-Iter.   Inner-Iter.     Column Row Layer    Maximum-Head-Change  Column Row Layer    Maximum-Flux-Residual          L2-NORM 
          0                 1           2             4    7     1       0.1834725808E-01       4    7    1         0.9618065705E+00      0.2456187427E+01
          0                 2           2             4    7     1      -0.1783726384E-02       4    7    1        -0.9612876956E-01      0.2455279011E+00
          0                 3           2             4    7     1       0.1213735519E-03       4    7    1         0.6723926750E-02      0.1717819314E-01
          0                 4           1             4    7     1      -0.4823507520E-05       4    7    1        -0.2746629266E-03      0.7020018134E-03

    ------------------------------------------------
       NWT REQUIRED            4 OUTER ITERATIONS 
       AND A TOTAL OF          7 INNER ITERATIONS.
    ------------------------------------------------

 NO OUTPUT CONTROL FOR STRESS PERIOD   26   TIME STEP    1
 
 SOLVING FOR HEAD 
                                                   Max.-Head-Change                         Max.-Flux-Residual
  Residual-Control   Outer-Iter.   Inner-Iter.     Column Row Layer    Maximum-Head-Change  Column Row Layer    Maximum-Flux-Residual          L2-NORM 
          0                 1           2             4    7     1       0.1818553474E-01       4    7    1         0.9532997161E+00      0.2437612074E+01
          0                 2           2             4    7     1      -0.1768003512E-02       4    7    1        -0.9527853720E-01      0.2436718904E+00
          0                 3           2             4    7     1       0.1203036897E-03       4    7    1         0.6664455360E-02      0.1704835946E-01
          0                 4           1             4    7     1      -0.4780990206E-05       4    7    1        -0.2722336030E-03      0.6966819212E-03

    ------------------------------------------------
       NWT REQUIRED            4 OUTER ITERATIONS 
       AND A TOTAL OF          7 INNER ITERATIONS.
    ------------------------------------------------

 NO OUTPUT CONTROL FOR STRESS PERIOD   26   TIME STEP    2
 
 SOLVING FOR HEAD 
                                                   Max.-Head-Change                         Max.-Flux-Residual
  Residual-Control   Outer-Iter.   Inner-Iter.     Column Row Layer    Maximum-Head-Change  Column Row Layer    Maximum-Flux-Residual          L2-NORM 
          0                 1           2             4    7     1       0.1802570755E-01       4    7    1         0.9448925771E+00      0.2419275614E+01
          0                 2           2             4    7     1      -0.1752464987E-02       4    7    1        -0.9443827115E-01      0.2418394065E+00
          0                 3           2             4    7     1       0.1192463712E-03       4    7    1         0.6605681102E-02      0.1692021192E-01
          0                 4           1             4    7     1      -0.4738971395E-05       4    7    1        -0.2698327417E-03      0.6914682392E-03

    ------------------------------------------------
       NWT REQUIRED            4 OUTER ITERATIONS 
       AND A TOTAL OF          7 INNER ITERATIONS.
    ------------------------------------------------

 NO OUTPUT CONTROL FOR STRESS PERIOD   26   TIME STEP    3
 
 SOLVING FOR HEAD 
                                                   Max.-Head-Change                         Max.-Flux-Residual
  Residual-Control   Outer-Iter.   Inner-Iter.     Column Row Layer    Maximum-Head-Change  Column Row Layer    Maximum-Flux-Residual          L2-NORM 
          0                 1           2             4    7     1       0.1786774625E-01       4    7    1         0.9365837491E+00      0.2401165372E+01
          0                 2           2             4    7     1      -0.1737107865E-02       4    7    1        -0.9360783103E-01      0.2400294863E+00
          0                 3           2             4    7     1       0.1182013959E-03       4    7    1         0.6547594111E-02      0.1679361750E-01
          0                 4           1             4    7     1      -0.4697442797E-05       4    7    1        -0.2674599536E-03      0.6862892816E-03

    ------------------------------------------------
       NWT REQUIRED            4 OUTER ITERATIONS 
       AND A TOTAL OF          7 INNER ITERATIONS.
    ------------------------------------------------

 NO OUTPUT CONTROL FOR STRESS PERIOD   26   TIME STEP    4
 
 SOLVING FOR HEAD 
                                                   Max.-Head-Change                         Max.-Flux-Residual
  Residual-Control   Outer-Iter.   Inner-Iter.     Column Row Layer    Maximum-Head-Change  Column Row Layer    Maximum-Flux-Residual          L2-NORM 
          0                 1           2             4    7     1       0.1771175461E-01       4    7    1         0.9283789942E+00      0.2383274338E+01
          0                 2           2             4    7     1      -0.1721942237E-02       4    7    1        -0.9278779278E-01      0.2382414250E+00
          0                 3           1             4    7     1       0.1171694546E-03       4    7    1         0.6490234725E-02      0.1666855083E-01
          0                 4           1             4    7     1      -0.4656435497E-05       4    7    1        -0.2651168943E-03      0.6811773608E-03

    ------------------------------------------------
       NWT REQUIRED            4 OUTER ITERATIONS 
       AND A TOTAL OF          6 INNER ITERATIONS.
    ------------------------------------------------

 NO OUTPUT CONTROL FOR STRESS PERIOD   26   TIME STEP    5
 
 SOLVING FOR HEAD 
                                                   Max.-Head-Change                         Max.-Flux-Residual
  Residual-Control   Outer-Iter.   Inner-Iter.     Column Row Layer    Maximum-Head-Change  Column Row Layer    Maximum-Flux-Residual          L2-NORM 
          0                 1           2             4    7     1       0.1755770102E-01       4    7    1         0.9202763625E+00      0.2365617248E+01
          0                 2           2             4    7     1      -0.1706965029E-02       4    7    1        -0.9197796145E-01      0.2364768173E+00
          0                 3           1             4    7     1       0.1161503310E-03       4    7    1         0.6433589288E-02      0.1654515031E-01
          0                 4           1             4    7     1      -0.4615934298E-05       4    7    1        -0.2628030034E-03      0.6761501197E-03

    ------------------------------------------------
       NWT REQUIRED            4 OUTER ITERATIONS 
       AND A TOTAL OF          6 INNER ITERATIONS.
    ------------------------------------------------

 NO OUTPUT CONTROL FOR STRESS PERIOD   26   TIME STEP    6
 
 SOLVING FOR HEAD 
                                                   Max.-Head-Change                         Max.-Flux-Residual
  Residual-Control   Outer-Iter.   Inner-Iter.     Column Row Layer    Maximum-Head-Change  Column Row Layer    Maximum-Flux-Residual          L2-NORM 
          0                 1           2             4    7     1       0.1740554769E-01       4    7    1         0.9122742159E+00      0.2348163388E+01
          0                 2           2             4    7     1      -0.1692172567E-02       4    7    1        -0.9117817339E-01      0.2347324324E+00
          0                 3           1             4    7     1       0.1151437784E-03       4    7    1         0.6377646348E-02      0.1642314591E-01
          0                 4           1             4    7     1      -0.4575933098E-05       4    7    1        -0.2605178097E-03      0.6711812921E-03

    ------------------------------------------------
       NWT REQUIRED            4 OUTER ITERATIONS 
       AND A TOTAL OF          6 INNER ITERATIONS.
    ------------------------------------------------

 NO OUTPUT CONTROL FOR STRESS PERIOD   26   TIME STEP    7
 
 SOLVING FOR HEAD 
                                                   Max.-Head-Change                         Max.-Flux-Residual
  Residual-Control   Outer-Iter.   Inner-Iter.     Column Row Layer    Maximum-Head-Change  Column Row Layer    Maximum-Flux-Residual          L2-NORM 
          0                 1           2             4    7     1       0.1725513123E-01       4    7    1         0.9043632632E+00      0.2330931827E+01
          0                 2           2             4    7     1      -0.1678965546E-02       4    7    1        -0.9048511024E-01      0.2330356164E+00
          0                 3           1             4    7     1       0.1142451531E-03       4    7    1         0.6329169392E-02      0.1630446766E-01
          0                 4           1             4    7     1      -0.4540223855E-05       4    7    1        -0.2585376633E-03      0.6663033707E-03

    ------------------------------------------------
       NWT REQUIRED            4 OUTER ITERATIONS 
       AND A TOTAL OF          6 INNER ITERATIONS.
    ------------------------------------------------

 NO OUTPUT CONTROL FOR STRESS PERIOD   26   TIME STEP    8
 
 SOLVING FOR HEAD 
                                                   Max.-Head-Change                         Max.-Flux-Residual
  Residual-Control   Outer-Iter.   Inner-Iter.     Column Row Layer    Maximum-Head-Change  Column Row Layer    Maximum-Flux-Residual          L2-NORM 
          0                 1           2             4    7     1       0.1710209146E-01       4    7    1         0.8964741897E+00      0.2313885835E+01
          0                 2           2             4    7     1      -0.1662671103E-02       4    7    1        -0.8959904241E-01      0.2313065762E+00
          0                 3           1             4    7     1       0.1131363948E-03       4    7    1         0.6267191181E-02      0.1618351192E-01
          0                 4           1             4    7     1      -0.4496160378E-05       4    7    1        -0.2560059065E-03      0.6613817230E-03

    ------------------------------------------------
       NWT REQUIRED            4 OUTER ITERATIONS 
       AND A TOTAL OF          6 INNER ITERATIONS.
    ------------------------------------------------

 NO OUTPUT CONTROL FOR STRESS PERIOD   26   TIME STEP    9
 
 SOLVING FOR HEAD 
                                                   Max.-Head-Change                         Max.-Flux-Residual
  Residual-Control   Outer-Iter.   Inner-Iter.     Column Row Layer    Maximum-Head-Change  Column Row Layer    Maximum-Flux-Residual          L2-NORM 
          0                 1           2             4    7     1       0.1695256007E-01       4    7    1         0.8886000687E+00      0.2297025687E+01
          0                 2           2             4    7     1      -0.1648133526E-02       4    7    1        -0.8881204866E-01      0.2296215051E+00
          0                 3           1             4    7     1       0.1121471850E-03       4    7    1         0.6212143129E-02      0.1606562989E-01
          0                 4           1             4    7     1      -0.4456847641E-05       4    7    1        -0.2537572445E-03      0.6565958089E-03

    ------------------------------------------------
       NWT REQUIRED            4 OUTER ITERATIONS 
       AND A TOTAL OF          6 INNER ITERATIONS.
    ------------------------------------------------

 NO OUTPUT CONTROL FOR STRESS PERIOD   26   TIME STEP   10
 
 SOLVING FOR HEAD 
                                                   Max.-Head-Change                         Max.-Flux-Residual
  Residual-Control   Outer-Iter.   Inner-Iter.     Column Row Layer    Maximum-Head-Change  Column Row Layer    Maximum-Flux-Residual          L2-NORM 
          0                 1           2             4    7     1       0.1680489704E-01       4    7    1         0.8808250565E+00      0.2280362704E+01
          0                 2           2             4    7     1      -0.1633777594E-02       4    7    1        -0.8803496061E-01      0.2279560992E+00
          0                 3           1             4    7     1       0.1111703355E-03       4    7    1         0.6157787960E-02      0.1594914326E-01
          0                 4           1             4    7     1      -0.4418026730E-05       4    7    1        -0.2515369010E-03      0.6517827694E-03

    ------------------------------------------------
       NWT REQUIRED            4 OUTER ITERATIONS 
       AND A TOTAL OF          6 INNER ITERATIONS.
    ------------------------------------------------

 NO OUTPUT CONTROL FOR STRESS PERIOD   26   TIME STEP   11
 
 SOLVING FOR HEAD 
                                                   Max.-Head-Change                         Max.-Flux-Residual
  Residual-Control   Outer-Iter.   Inner-Iter.     Column Row Layer    Maximum-Head-Change  Column Row Layer    Maximum-Flux-Residual          L2-NORM 
          0                 1           2             4    7     1       0.1665920059E-01       4    7    1         0.8731542470E+00      0.2263904349E+01
          0                 2           2             4    7     1      -0.1619612857E-02       4    7    1        -0.8726828747E-01      0.2263111080E+00
          0                 3           1             4    7     1       0.1102064957E-03       4    7    1         0.6104161273E-02      0.1583405137E-01
          0                 4           1             4    7     1      -0.4379722856E-05       4    7    1        -0.2493463221E-03      0.6471085500E-03

    ------------------------------------------------
       NWT REQUIRED            4 OUTER ITERATIONS 
       AND A TOTAL OF          6 INNER ITERATIONS.
    ------------------------------------------------

 NO OUTPUT CONTROL FOR STRESS PERIOD   26   TIME STEP   12
 
 SOLVING FOR HEAD 
                                                   Max.-Head-Change                         Max.-Flux-Residual
  Residual-Control   Outer-Iter.   Inner-Iter.     Column Row Layer    Maximum-Head-Change  Column Row Layer    Maximum-Flux-Residual          L2-NORM 
          0                 1           2             4    7     1       0.1651556107E-01       4    7    1         0.8655927338E+00      0.2247646065E+01
          0                 2           2             4    7     1      -0.1605648098E-02       4    7    1        -0.8651253827E-01      0.2246861215E+00
          0                 3           1             4    7     1       0.1092562636E-03       4    7    1         0.6051298683E-02      0.1572039916E-01
          0                 4           1             4    7     1      -0.4341959622E-05       4    7    1        -0.2471869661E-03      0.6424371435E-03

    ------------------------------------------------
       NWT REQUIRED            4 OUTER ITERATIONS 
       AND A TOTAL OF          6 INNER ITERATIONS.
    ------------------------------------------------

 NO OUTPUT CONTROL FOR STRESS PERIOD   26   TIME STEP   13
 
 SOLVING FOR HEAD 
                                                   Max.-Head-Change                         Max.-Flux-Residual
  Residual-Control   Outer-Iter.   Inner-Iter.     Column Row Layer    Maximum-Head-Change  Column Row Layer    Maximum-Flux-Residual          L2-NORM 
          0                 1           2             4    7     1       0.1637365695E-01       4    7    1         0.8581232043E+00      0.2231578218E+01
          0                 2           2             4    7     1      -0.1591852058E-02       4    7    1        -0.8576598270E-01      0.2230801713E+00
          0                 3           1             4    7     1       0.1083175117E-03       4    7    1         0.5999079184E-02      0.1560807434E-01
          0                 4           1             4    7     1      -0.4304652177E-05       4    7    1        -0.2450538477E-03      0.6378511188E-03

    ------------------------------------------------
       NWT REQUIRED            4 OUTER ITERATIONS 
       AND A TOTAL OF          6 INNER ITERATIONS.
    ------------------------------------------------

 NO OUTPUT CONTROL FOR STRESS PERIOD   26   TIME STEP   14
 
 SOLVING FOR HEAD 
                                                   Max.-Head-Change                         Max.-Flux-Residual
  Residual-Control   Outer-Iter.   Inner-Iter.     Column Row Layer    Maximum-Head-Change  Column Row Layer    Maximum-Flux-Residual          L2-NORM 
          0                 1           2             4    7     1       0.1623346177E-01       4    7    1         0.8507436517E+00      0.2215702877E+01
          0                 2           2             4    7     1      -0.1578222164E-02       4    7    1        -0.8502842007E-01      0.2214934263E+00
          0                 3           1             4    7     1       0.1073900651E-03       4    7    1         0.5947488698E-02      0.1549706204E-01
          0                 4           1             4    7     1      -0.4267794537E-05       4    7    1        -0.2429464312E-03      0.6333416336E-03

    ------------------------------------------------
       NWT REQUIRED            4 OUTER ITERATIONS 
       AND A TOTAL OF          6 INNER ITERATIONS.
    ------------------------------------------------

 NO OUTPUT CONTROL FOR STRESS PERIOD   26   TIME STEP   15
 
 SOLVING FOR HEAD 
                                                   Max.-Head-Change                         Max.-Flux-Residual
  Residual-Control   Outer-Iter.   Inner-Iter.     Column Row Layer    Maximum-Head-Change  Column Row Layer    Maximum-Flux-Residual          L2-NORM 
          0                 1           2             4    7     1       0.1609520860E-01       4    7    1         0.8434673706E+00      0.2200015588E+01
          0                 2           2             4    7     1      -0.1564781076E-02       4    7    1        -0.8430117930E-01      0.2199254767E+00
          0                 3           1             4    7     1       0.1064754666E-03       4    7    1         0.5896620235E-02      0.1538740566E-01
          0                 4           1             4    7     1      -0.4231447256E-05       4    7    1        -0.2408685268E-03      0.6288496401E-03

    ------------------------------------------------
       NWT REQUIRED            4 OUTER ITERATIONS 
       AND A TOTAL OF          6 INNER ITERATIONS.
    ------------------------------------------------

 NO OUTPUT CONTROL FOR STRESS PERIOD   26   TIME STEP   16
 
 SOLVING FOR HEAD 
                                                   Max.-Head-Change                         Max.-Flux-Residual
  Residual-Control   Outer-Iter.   Inner-Iter.     Column Row Layer    Maximum-Head-Change  Column Row Layer    Maximum-Flux-Residual          L2-NORM 
          0                 1           2             4    7     1       0.1595871951E-01       4    7    1         0.8362844465E+00      0.2184516668E+01
          0                 2           2             4    7     1      -0.1551511494E-02       4    7    1        -0.8358326933E-01      0.2183763696E+00
          0                 3           1             4    7     1       0.1055725377E-03       4    7    1         0.5846404404E-02      0.1527904625E-01
          0                 4           1             4    7     1      -0.4195563825E-05       4    7    1        -0.2388172711E-03      0.6244230752E-03

    ------------------------------------------------
       NWT REQUIRED            4 OUTER ITERATIONS 
       AND A TOTAL OF          6 INNER ITERATIONS.
    ------------------------------------------------

 NO OUTPUT CONTROL FOR STRESS PERIOD   26   TIME STEP   17
 
 SOLVING FOR HEAD 
                                                   Max.-Head-Change                         Max.-Flux-Residual
  Residual-Control   Outer-Iter.   Inner-Iter.     Column Row Layer    Maximum-Head-Change  Column Row Layer    Maximum-Flux-Residual          L2-NORM 
          0                 1           2             4    7     1       0.1582395670E-01       4    7    1         0.8291929870E+00      0.2169193165E+01
          0                 2           2             4    7     1      -0.1538409745E-02       4    7    1        -0.8287450110E-01      0.2168447718E+00
          0                 3           1             4    7     1       0.1046810287E-03       4    7    1         0.5796828015E-02      0.1517190786E-01
          0                 4           1             4    7     1      -0.4160134343E-05       4    7    1        -0.2367921252E-03      0.6200402969E-03

    ------------------------------------------------
       NWT REQUIRED            4 OUTER ITERATIONS 
       AND A TOTAL OF          6 INNER ITERATIONS.
    ------------------------------------------------

 NO OUTPUT CONTROL FOR STRESS PERIOD   26   TIME STEP   18
 
 SOLVING FOR HEAD 
                                                   Max.-Head-Change                         Max.-Flux-Residual
  Residual-Control   Outer-Iter.   Inner-Iter.     Column Row Layer    Maximum-Head-Change  Column Row Layer    Maximum-Flux-Residual          L2-NORM 
          0                 1           2             4    7     1       0.1569075406E-01       4    7    1         0.8221836987E+00      0.2154051561E+01
          0                 2           2             4    7     1      -0.1525459677E-02       4    7    1        -0.8217394566E-01      0.2153313408E+00
          0                 3           1             4    7     1       0.1037998413E-03       4    7    1         0.5747826109E-02      0.1506601774E-01
          0                 4           1             4    7     1      -0.4125114714E-05       4    7    1        -0.2347904547E-03      0.6156847080E-03

    ------------------------------------------------
       NWT REQUIRED            4 OUTER ITERATIONS 
       AND A TOTAL OF          6 INNER ITERATIONS.
    ------------------------------------------------

 NO OUTPUT CONTROL FOR STRESS PERIOD   26   TIME STEP   19
 
 SOLVING FOR HEAD 
                                                   Max.-Head-Change                         Max.-Flux-Residual
  Residual-Control   Outer-Iter.   Inner-Iter.     Column Row Layer    Maximum-Head-Change  Column Row Layer    Maximum-Flux-Residual          L2-NORM 
          0                 1           2             4    7     1       0.1555934949E-01       4    7    1         0.8152699694E+00      0.2139082304E+01
          0                 2           2             4    7     1      -0.1512684422E-02       4    7    1        -0.8148294120E-01      0.2138351519E+00
          0                 3           1             4    7     1       0.1029305492E-03       4    7    1         0.5699492272E-02      0.1496137807E-01
          0                 4           1             4    7     1      -0.4090568375E-05       4    7    1        -0.2328160813E-03      0.6114659947E-03

    ------------------------------------------------
       NWT REQUIRED            4 OUTER ITERATIONS 
       AND A TOTAL OF          6 INNER ITERATIONS.
    ------------------------------------------------

 NO OUTPUT CONTROL FOR STRESS PERIOD   26   TIME STEP   20
 
 SOLVING FOR HEAD 
                                                   Max.-Head-Change                         Max.-Flux-Residual
  Residual-Control   Outer-Iter.   Inner-Iter.     Column Row Layer    Maximum-Head-Change  Column Row Layer    Maximum-Flux-Residual          L2-NORM 
          0                 1           2             4    7     1       0.1542957205E-01       4    7    1         0.8084421335E+00      0.2124293150E+01
          0                 2           2             4    7     1      -0.1500067357E-02       4    7    1        -0.8080052154E-01      0.2123569238E+00
          0                 3           1             4    7     1       0.1020720205E-03       4    7    1         0.5651758889E-02      0.1485794005E-01
          0                 4           1             4    7     1      -0.4056449159E-05       4    7    1        -0.2308662210E-03      0.6071971575E-03

    ------------------------------------------------
       NWT REQUIRED            4 OUTER ITERATIONS 
       AND A TOTAL OF          6 INNER ITERATIONS.
    ------------------------------------------------

 NO OUTPUT CONTROL FOR STRESS PERIOD   26   TIME STEP   21
 
 SOLVING FOR HEAD 
                                                   Max.-Head-Change                         Max.-Flux-Residual
  Residual-Control   Outer-Iter.   Inner-Iter.     Column Row Layer    Maximum-Head-Change  Column Row Layer    Maximum-Flux-Residual          L2-NORM 
          0                 1           2             4    7     1       0.1530138997E-01       4    7    1         0.8016986617E+00      0.2109674389E+01
          0                 2           2             4    7     1      -0.1487605397E-02       4    7    1        -0.8012653391E-01      0.2108957249E+00
          0                 3           1             4    7     1       0.1012240465E-03       4    7    1         0.5604615324E-02      0.1475572800E-01
          0                 4           1             4    7     1      -0.4022749814E-05       4    7    1        -0.2289404733E-03      0.6030241578E-03

    ------------------------------------------------
       NWT REQUIRED            4 OUTER ITERATIONS 
       AND A TOTAL OF          6 INNER ITERATIONS.
    ------------------------------------------------

 NO OUTPUT CONTROL FOR STRESS PERIOD   26   TIME STEP   22
 
 SOLVING FOR HEAD 
                                                   Max.-Head-Change                         Max.-Flux-Residual
  Residual-Control   Outer-Iter.   Inner-Iter.     Column Row Layer    Maximum-Head-Change  Column Row Layer    Maximum-Flux-Residual          L2-NORM 
          0                 1           2             4    7     1       0.1517477101E-01       4    7    1         0.7950379067E+00      0.2095216733E+01
          0                 2           2             4    7     1      -0.1475295406E-02       4    7    1        -0.7946081365E-01      0.2094506212E+00
          0                 3           1             4    7     1       0.1003864136E-03       4    7    1         0.5558050058E-02      0.1465462669E-01
          0                 4           1             4    7     1      -0.3989461820E-05       4    7    1        -0.2270383511E-03      0.5988942276E-03

    ------------------------------------------------
       NWT REQUIRED            4 OUTER ITERATIONS 
       AND A TOTAL OF          6 INNER ITERATIONS.
    ------------------------------------------------

 NO OUTPUT CONTROL FOR STRESS PERIOD   26   TIME STEP   23
 
 SOLVING FOR HEAD 
                                                   Max.-Head-Change                         Max.-Flux-Residual
  Residual-Control   Outer-Iter.   Inner-Iter.     Column Row Layer    Maximum-Head-Change  Column Row Layer    Maximum-Flux-Residual          L2-NORM 
          0                 1           2             4    7     1       0.1504968764E-01       4    7    1         0.7884581965E+00      0.2080926387E+01
          0                 2           2             4    7     1      -0.1463134705E-02       4    7    1        -0.7880319359E-01      0.2080222690E+00
          0                 3           1             4    7     1       0.9955893849E-04       4    7    1         0.5512051341E-02      0.1455472271E-01

    ------------------------------------------------
       NWT REQUIRED            3 OUTER ITERATIONS 
       AND A TOTAL OF          5 INNER ITERATIONS.
    ------------------------------------------------

 NO OUTPUT CONTROL FOR STRESS PERIOD   26   TIME STEP   24
 
 SOLVING FOR HEAD 
                                                   Max.-Head-Change                         Max.-Flux-Residual
  Residual-Control   Outer-Iter.   Inner-Iter.     Column Row Layer    Maximum-Head-Change  Column Row Layer    Maximum-Flux-Residual          L2-NORM 
          0                 1           2             4    7     1       0.1492606482E-01       4    7    1         0.7819557514E+00      0.2066800859E+01
          0                 2           2             4    7     1      -0.1451116004E-02       4    7    1        -0.7815329605E-01      0.2066103509E+00
          0                 3           1             4    7     1       0.9874112607E-04       4    7    1         0.5466592829E-02      0.1445594149E-01

    ------------------------------------------------
       NWT REQUIRED            3 OUTER ITERATIONS 
       AND A TOTAL OF          5 INNER ITERATIONS.
    ------------------------------------------------

 NO OUTPUT CONTROL FOR STRESS PERIOD   26   TIME STEP   25
 
 SOLVING FOR HEAD 
                                                   Max.-Head-Change                         Max.-Flux-Residual
  Residual-Control   Outer-Iter.   Inner-Iter.     Column Row Layer    Maximum-Head-Change  Column Row Layer    Maximum-Flux-Residual          L2-NORM 
          0                 1           2             4    7     1       0.1480392223E-01       4    7    1         0.7755314131E+00      0.2052828741E+01
          0                 2           2             4    7     1      -0.1439241211E-02       4    7    1        -0.7751120510E-01      0.2052138141E+00
          0                 3           1             4    7     1       0.9793310518E-04       4    7    1         0.5421680336E-02      0.1435823416E-01

    ------------------------------------------------
       NWT REQUIRED            3 OUTER ITERATIONS 
       AND A TOTAL OF          5 INNER ITERATIONS.
    ------------------------------------------------

 NO OUTPUT CONTROL FOR STRESS PERIOD   26   TIME STEP   26
 
 SOLVING FOR HEAD 
                                                   Max.-Head-Change                         Max.-Flux-Residual
  Residual-Control   Outer-Iter.   Inner-Iter.     Column Row Layer    Maximum-Head-Change  Column Row Layer    Maximum-Flux-Residual          L2-NORM 
          0                 1           2             4    7     1       0.1468336542E-01       4    7    1         0.7691911569E+00      0.2039018363E+01
          0                 2           2             4    7     1      -0.1427520591E-02       4    7    1        -0.7687751794E-01      0.2038333992E+00
          0                 3           1             4    7     1       0.9713557589E-04       4    7    1         0.5377355700E-02      0.1426166136E-01

    ------------------------------------------------
       NWT REQUIRED            3 OUTER ITERATIONS 
       AND A TOTAL OF          5 INNER ITERATIONS.
    ------------------------------------------------

 NO OUTPUT CONTROL FOR STRESS PERIOD   26   TIME STEP   27
 
 SOLVING FOR HEAD 
                                                   Max.-Head-Change                         Max.-Flux-Residual
  Residual-Control   Outer-Iter.   Inner-Iter.     Column Row Layer    Maximum-Head-Change  Column Row Layer    Maximum-Flux-Residual          L2-NORM 
          0                 1           2             4    7     1       0.1456423040E-01       4    7    1         0.7629257849E+00      0.2025363930E+01
          0                 2           2             4    7     1      -0.1415938199E-02       4    7    1        -0.7625131526E-01      0.2024686015E+00
          0                 3           1             4    7     1       0.9634745212E-04       4    7    1         0.5333554584E-02      0.1416620664E-01

    ------------------------------------------------
       NWT REQUIRED            3 OUTER ITERATIONS 
       AND A TOTAL OF          5 INNER ITERATIONS.
    ------------------------------------------------

 NO OUTPUT CONTROL FOR STRESS PERIOD   26   TIME STEP   28
 
 SOLVING FOR HEAD 
                                                   Max.-Head-Change                         Max.-Flux-Residual
  Residual-Control   Outer-Iter.   Inner-Iter.     Column Row Layer    Maximum-Head-Change  Column Row Layer    Maximum-Flux-Residual          L2-NORM 
          0                 1           2             4    7     1       0.1444648989E-01       4    7    1         0.7567341297E+00      0.2011859832E+01
          0                 2           2             4    7     1      -0.1404491384E-02       4    7    1        -0.7563248043E-01      0.2011187878E+00
          0                 3           1             4    7     1       0.9556855352E-04       4    7    1         0.5290268794E-02      0.1407179721E-01

    ------------------------------------------------
       NWT REQUIRED            3 OUTER ITERATIONS 
       AND A TOTAL OF          5 INNER ITERATIONS.
    ------------------------------------------------

 NO OUTPUT CONTROL FOR STRESS PERIOD   26   TIME STEP   29
 
 SOLVING FOR HEAD 
                                                   Max.-Head-Change                         Max.-Flux-Residual
  Residual-Control   Outer-Iter.   Inner-Iter.     Column Row Layer    Maximum-Head-Change  Column Row Layer    Maximum-Flux-Residual          L2-NORM 
          0                 1           2             4    7     1       0.1433011903E-01       4    7    1         0.7506147776E+00      0.1998508550E+01
          0                 2           2             4    7     1      -0.1393177727E-02       4    7    1        -0.7502087211E-01      0.1997842536E+00
          0                 3           1             4    7     1       0.9479871596E-04       4    7    1         0.5247488513E-02      0.1397841599E-01

    ------------------------------------------------
       NWT REQUIRED            3 OUTER ITERATIONS 
       AND A TOTAL OF          5 INNER ITERATIONS.
    ------------------------------------------------

 NO OUTPUT CONTROL FOR STRESS PERIOD   26   TIME STEP   30



 STREAM LISTING     PERIOD     26   STEP       30

 LAYER ROW COL. STREAM  RCH.  FLOW INTO     FLOW TO   FLOW OUT OF   OVRLND.     DIRECT     STREAM       STREAM     STREAM     STREAM   STREAMBED  STREAMBED
                SEG.NO.  NO.  STRM. RCH.    AQUIFER    STRM. RCH.    RUNOFF     PRECIP       ET          HEAD       DEPTH      WIDTH   CONDCTNC.   GRADIENT

   1    1    1     1     1    1.9000E+01  2.1427E-01   1.8786E+01  0.000E+00  0.000E+00  0.000E+00  1.09413E+03  1.082E+00  1.166E+01  5.249E-02  1.361E+00
   1    2    2     1     2    1.8786E+01  3.3054E-01   1.8455E+01  0.000E+00  0.000E+00  0.000E+00  1.08914E+03  1.077E+00  1.158E+01  8.107E-02  1.359E+00
   1    3    3     1     3    1.8455E+01  2.8064E-01   1.8175E+01  0.000E+00  0.000E+00  0.000E+00  1.08349E+03  1.072E+00  1.149E+01  6.892E-02  1.357E+00
   1    3    4     1     4    1.8175E+01  2.5740E-01   1.7917E+01  0.000E+00  0.000E+00  0.000E+00  1.07848E+03  1.068E+00  1.140E+01  6.328E-02  1.356E+00
   1    4    5     2     1    1.5917E+01  3.0542E-01   1.5612E+01  0.000E+00  0.000E+00  0.000E+00  1.07285E+03  9.157E-01  1.200E+01  7.800E-02  1.305E+00
   1    5    6     2     2    1.5612E+01  2.3438E-01   1.5377E+01  0.000E+00  0.000E+00  0.000E+00  1.06742E+03  9.063E-01  1.200E+01  6.000E-02  1.302E+00
   1    6    6     2     3    1.5377E+01  2.3388E-01   1.5143E+01  0.000E+00  0.000E+00  0.000E+00  1.06269E+03  8.980E-01  1.200E+01  6.000E-02  1.299E+00
   1    7    6     2     4    1.5143E+01  2.3338E-01   1.4910E+01  0.000E+00  0.000E+00  0.000E+00  1.05797E+03  8.897E-01  1.200E+01  6.000E-02  1.297E+00
   1    8    6     2     5    1.4910E+01  2.3289E-01   1.4677E+01  0.000E+00  0.000E+00  0.000E+00  1.05324E+03  8.814E-01  1.200E+01  6.000E-02  1.294E+00
   1    3    5     3     1    2.0000E+00  2.8252E-01   1.7175E+00  0.000E+00  0.000E+00  0.000E+00  1.07555E+03  1.909E+00  9.636E+00  7.227E-02  1.955E+00
   1    3    6     3     2    1.7175E+00  2.4905E-01   1.4684E+00  0.000E+00  0.000E+00  0.000E+00  1.07264E+03  1.727E+00  8.909E+00  6.682E-02  1.864E+00
   1    3    7     3     3    1.4684E+00  1.9718E-01   1.2712E+00  0.000E+00  0.000E+00  0.000E+00  1.06987E+03  1.555E+00  8.218E+00  5.547E-02  1.777E+00
   1    4    8     3     4    1.2712E+00  2.2567E-01   1.0456E+00  0.000E+00  0.000E+00  0.000E+00  1.06682E+03  1.364E+00  7.455E+00  6.709E-02  1.682E+00
   1    5    8     3     5    1.0456E+00  1.5790E-01   8.8768E-01  0.000E+00  0.000E+00  0.000E+00  1.06362E+03  1.164E+00  6.655E+00  4.991E-02  1.582E+00
   1    6    8     3     6    8.8768E-01  5.5980E-02   8.3170E-01  0.000E+00  0.000E+00  0.000E+00  1.06158E+03  1.036E+00  6.145E+00  1.844E-02  1.518E+00
   1    5   10     4     1    1.0000E+01  9.0919E-02   9.9091E+00  0.000E+00  0.000E+00  0.000E+00  1.07836E+03  6.368E-01  1.000E+01  2.500E-02  1.212E+00
   1    5    9     4     2    9.9091E+00  1.8158E-01   9.7275E+00  0.000E+00  0.000E+00  0.000E+00  1.07154E+03  6.315E-01  1.000E+01  5.000E-02  1.211E+00
   1    6    8     4     3    9.7275E+00  1.2689E-01   9.6006E+00  0.000E+00  0.000E+00  0.000E+00  1.06381E+03  6.256E-01  1.000E+01  3.500E-02  1.209E+00
   1    6    8     5     1    1.0432E+01  2.2686E-01   1.0205E+01  0.000E+00  0.000E+00  0.000E+00  1.05868E+03  6.790E-01  1.542E+01  6.166E-02  1.226E+00
   1    7    7     5     2    1.0205E+01  2.7894E-01   9.9265E+00  0.000E+00  0.000E+00  0.000E+00  1.05417E+03  6.732E-01  1.519E+01  7.594E-02  1.224E+00
   1    8    7     5     3    9.9265E+00  1.9221E-01   9.7343E+00  0.000E+00  0.000E+00  0.000E+00  1.04992E+03  6.676E-01  1.497E+01  5.241E-02  1.223E+00
   1    8    6     5     4    9.7343E+00  1.3577E-01   9.5985E+00  0.000E+00  0.000E+00  0.000E+00  1.04691E+03  6.637E-01  1.482E+01  3.706E-02  1.221E+00
   1    9    6     6     1    2.4276E+01  2.5176E-01   2.4024E+01  0.000E+00  0.000E+00  0.000E+00  1.04392E+03  1.196E+00  1.200E+01  6.000E-02  1.399E+00
   1   10    7     6     2    2.4024E+01  2.5131E-01   2.3773E+01  0.000E+00  0.000E+00  0.000E+00  1.03937E+03  1.188E+00  1.200E+01  6.000E-02  1.396E+00
   1   11    7     6     3    2.3773E+01  2.5086E-01   2.3522E+01  0.000E+00  0.000E+00  0.000E+00  1.03482E+03  1.181E+00  1.200E+01  6.000E-02  1.394E+00
   1   12    7     6     4    2.3522E+01  2.5041E-01   2.3271E+01  0.000E+00  0.000E+00  0.000E+00  1.03026E+03  1.173E+00  1.200E+01  6.000E-02  1.391E+00
   1   13    7     6     5    2.3271E+01  3.7593E-03   2.3268E+01  0.000E+00  0.000E+00  0.000E+00  1.02708E+03  1.170E+00  1.200E+01  2.400E-02  5.221E-02
   1   14    9     7     1    1.5000E+02  1.3394E+00   1.4866E+02  0.000E+00  0.000E+00  0.000E+00  1.03987E+03  2.288E+00  5.529E+01  5.593E-01  7.982E-01
   1   13    8     7     2    1.4866E+02  1.8672E+00   1.4679E+02  0.000E+00  0.000E+00  0.000E+00  1.03478E+03  2.279E+00  5.526E+01  6.148E-01  1.012E+00
   1   13    7     7     3    1.4679E+02  1.5454E+00   1.4525E+02  0.000E+00  0.000E+00  0.000E+00  1.02969E+03  2.270E+00  5.522E+01  5.584E-01  9.225E-01
   1   13    6     8     1    1.6852E+02  9.9680E-01   1.6752E+02  0.000E+00  0.000E+00  0.000E+00  1.02481E+03  2.939E+00  4.262E+01  4.343E-01  7.651E-01
   1   13    5     8     2    1.6752E+02  2.5568E-01   1.6726E+02  0.000E+00  0.000E+00  0.000E+00  1.01856E+03  2.935E+00  4.256E+01  4.337E-01  1.965E-01
   1   13    4     8     3    1.6726E+02 -2.1474E+00   1.6941E+02  0.000E+00  0.000E+00  0.000E+00  1.01232E+03  2.941E+00  4.265E+01  4.346E+00 -1.647E-01
   1   13    3     8     4    1.6941E+02 -3.5227E+00   1.7293E+02  0.000E+00  0.000E+00  0.000E+00  1.00608E+03  2.960E+00  4.292E+01  4.373E+00 -2.685E-01
   1   13    2     8     5    1.7293E+02 -2.5561E+00   1.7549E+02  0.000E+00  0.000E+00  0.000E+00  9.99854E+02  2.979E+00  4.320E+01  4.402E+00 -1.935E-01
   1   13    1     8     6    1.7549E+02 -1.9822E+00   1.7747E+02  0.000E+00  0.000E+00  0.000E+00  9.94869E+02  2.994E+00  4.341E+01  2.654E+00 -2.489E-01





UNSATURATED ZONE PACKAGE VOLUMETRIC BUDGET FOR  TIME STEP    30 STRESS PERIOD   26
  ------------------------------------------------------------------------------



     CUMULATIVE VOLUMES      L**3       RATES FOR THIS TIME STEP      L**3/T
     ------------------                 ------------------------

           IN:                                      IN:
           ---                                      ---
        INFILTRATION =  1007477308.6203          INFILTRATION =           0.8475

          OUT:                                     OUT:
          ----                                     ----
              UZF ET =   862597748.6649                UZF ET =           0.7500
        UZF RECHARGE =   144037142.2351          UZF RECHARGE =           0.0002

            IN - OUT =      842417.7203              IN - OUT =       9.7315E-02

          STORAGE:                                 STORAGE:
          --------                                 --------
      STORAGE CHANGE =      842403.3533        STORAGE CHANGE =       9.7315E-02

 PERCENT DISCREPANCY IS DIFFERENCE BETWEEN IN-OUT MINUS CHANGE IN STORAGE
 DIVIDED BY THE AVERAGE OF IN AND OUT TIMES 100

 PERCENT DISCREPANCY =           0.00     PERCENT DISCREPANCY =           0.00






1
  VOLUMETRIC BUDGET FOR AGRICULTURAL FIELDS AT  END OF TIME STEP   30, STRESS PERIOD  26
  ------------------------------------------------------------------------------

     CUMULATIVE VOLUMES      L**3       RATES FOR THIS TIME STEP      L**3/T
     ------------------                 ------------------------

           IN:                                      IN:
           ---                                      ---
               AG WELLS  =   951679488.0000                 AG WELLS  =           0.0000
      DIVERSION SEGMENTS =           0.0000        DIVERSION SEGMENTS =           0.0000
           GW IRRIGATION =           0.0000             GW IRRIGATION =           0.0000
           SW IRRIGATION =           0.0000             SW IRRIGATION =           0.0000
        SYSTEM LOSSES GW =           0.0000          SYSTEM LOSSES GW =           0.0000
        SYSTEM LOSSES SW =           0.0000          SYSTEM LOSSES SW =           0.0000

                TOTAL IN =   951679488.0000                  TOTAL IN =           0.0000

          OUT:                                     OUT:
          ----                                     ----
               AG WELLS  =           0.0000                 AG WELLS  =           0.0000
      DIVERSION SEGMENTS =           0.0000        DIVERSION SEGMENTS =           0.0000
           GW IRRIGATION =   951679488.0000             GW IRRIGATION =           0.0000
           SW IRRIGATION =           0.0000             SW IRRIGATION =           0.0000
        SYSTEM LOSSES GW =           0.0000          SYSTEM LOSSES GW =           0.0000
        SYSTEM LOSSES SW =           0.0000          SYSTEM LOSSES SW =           0.0000

               TOTAL OUT =   951679488.0000                 TOTAL OUT =           0.0000

                IN - OUT =           0.0000                  IN - OUT =           0.0000

     PERCENT DISCREPANCY =           0.00         PERCENT DISCREPANCY =           0.00



1
  VOLUMETRIC BUDGET FOR ENTIRE MODEL AT END OF TIME STEP   30, STRESS PERIOD  26
  ------------------------------------------------------------------------------

     CUMULATIVE VOLUMES      L**3       RATES FOR THIS TIME STEP      L**3/T
     ------------------                 ------------------------

           IN:                                      IN:
           ---                                      ---
             STORAGE     =  1234448384.0000               STORAGE     =           5.9833
       CONSTANT HEAD     =           0.0000         CONSTANT HEAD     =           0.0000
     HEAD DEP BOUNDS     =    18796536.0000       HEAD DEP BOUNDS     =           0.2860
      STREAM LEAKAGE     =   816102080.0000        STREAM LEAKAGE     =          11.7368
        UZF RECHARGE     =   144036992.0000          UZF RECHARGE     =       1.8519E-04
               GW ET     =           0.0000                 GW ET     =           0.0000
     SURFACE LEAKAGE     =           0.0000       SURFACE LEAKAGE     =           0.0000
           AG WELLS      =           0.0000             AG WELLS      =           0.0000

                TOTAL IN =  2213384192.0000                  TOTAL IN =          18.0062

          OUT:                                     OUT:
          ----                                     ----
             STORAGE     =   543064384.0000               STORAGE     =           7.5087
       CONSTANT HEAD     =           0.0000         CONSTANT HEAD     =           0.0000
     HEAD DEP BOUNDS     =    19346976.0000       HEAD DEP BOUNDS     =           0.2894
      STREAM LEAKAGE     =   681763072.0000        STREAM LEAKAGE     =          10.2085
        UZF RECHARGE     =           0.0000          UZF RECHARGE     =           0.0000
               GW ET     =    17516984.0000                 GW ET     =           0.0000
     SURFACE LEAKAGE     =           0.0000       SURFACE LEAKAGE     =           0.0000
           AG WELLS      =   951679488.0000             AG WELLS      =           0.0000

               TOTAL OUT =  2213370880.0000                 TOTAL OUT =          18.0067

                IN - OUT =       13312.0000                  IN - OUT =      -4.2915E-04

     PERCENT DISCREPANCY =           0.00         PERCENT DISCREPANCY =          -0.00






         TIME SUMMARY AT END OF TIME STEP   30 IN STRESS PERIOD   26
                    SECONDS     MINUTES      HOURS       DAYS        YEARS
                    -----------------------------------------------------------
   TIME STEP LENGTH  87667.      1461.1      24.352      1.0147     2.77799E-03
 STRESS PERIOD TIME 2.63000E+06  43833.      730.56      30.440     8.33397E-02
         TOTAL TIME 6.58368E+07 1.09728E+06  18288.      762.00      2.0862    
1
1
                            STRESS PERIOD NO.   27, LENGTH =   2630000.    
                            -----------------------------------------------

                              NUMBER OF TIME STEPS =    30

                               MULTIPLIER FOR DELT =     1.000

                            INITIAL TIME STEP SIZE =   87666.66    

 REUSING NON-PARAMETER GHB CELLS FROM LAST STRESS PERIOD

      2 GHB CELLS

 REUSING STREAM SEGMENT DATA FROM LAST STRESS PERIOD



            AREAL INFILTRATION RATE
 READING ON UNIT   19 WITH FORMAT: (FREE)              

            1           2           3           4           5           6           7           8           9          10
 ........................................................................................................................
   1   1.0000E-10  2.0000E-10   0.000       0.000       0.000       0.000       0.000       0.000       0.000       0.000    
   2   2.0000E-10  1.0000E-10  2.0000E-10   0.000       0.000      8.0000E-10  8.0000E-10  5.0000E-10   0.000       0.000    
   3    0.000      5.0000E-10  1.0000E-10  1.0000E-10  8.0000E-10  8.0000E-10  5.0000E-10  5.0000E-10   0.000       0.000    
   4   8.0000E-10  5.0000E-10  1.0000E-10  1.0000E-10  1.0000E-10  1.0000E-10  1.0000E-10  1.0000E-10  2.0000E-10   0.000    
   5   8.0000E-10  5.0000E-10  1.0000E-10  1.0000E-10  1.0000E-10  1.0000E-10  1.0000E-10  1.0000E-10  1.0000E-10  1.0000E-10
   6   8.0000E-10  5.0000E-10  5.0000E-10  2.0000E-10  2.0000E-10  1.0000E-10  1.0000E-10  1.0000E-10  1.0000E-10  5.0000E-10
   7   8.0000E-10  5.0000E-10  5.0000E-10  2.0000E-10  2.0000E-10  1.0000E-10  1.0000E-10  2.0000E-10  2.0000E-10   0.000    
   8    0.000      5.0000E-10  5.0000E-10  2.0000E-10  2.0000E-10  1.0000E-10  1.0000E-10  2.0000E-10  5.0000E-10   0.000    
   9    0.000      5.0000E-10  5.0000E-10  2.0000E-10  2.0000E-10  1.0000E-10  1.0000E-10  2.0000E-10  5.0000E-10   0.000    
  10    0.000      5.0000E-10  5.0000E-10  2.0000E-10  2.0000E-10  1.0000E-10  1.0000E-10  2.0000E-10  5.0000E-10  8.0000E-10
  11    0.000      1.0000E-10  1.0000E-10  1.0000E-10  1.0000E-10  1.0000E-10  1.0000E-10  2.0000E-10  5.0000E-10   0.000    
  12   1.0000E-10  1.0000E-10  1.0000E-10  1.0000E-10  1.0000E-10  1.0000E-10  1.0000E-10  1.0000E-10  2.0000E-10   0.000    
  13   1.0000E-10  1.0000E-10  2.0000E-10  2.0000E-10  2.0000E-10  2.0000E-10  2.0000E-10  1.0000E-10  1.0000E-10   0.000    
  14    0.000      2.0000E-10  5.0000E-10  5.0000E-10  5.0000E-10  5.0000E-10  5.0000E-10  2.0000E-10  1.0000E-10   0.000    
  15    0.000       0.000      8.0000E-10  8.0000E-10  8.0000E-10  8.0000E-10   0.000       0.000       0.000       0.000    

                  ET RATE =  5.000000E-10

 USING ET EXTINCTION DEPTH FROM PREVIOUS STRESS PERIOD. CURRENT PERIOD IS:      27

 USING EXTINCTION WATER CONTENT FROM PREVIOUS STRESS PERIOD. CURRENT PERIOD IS:      27

 USING AIR ENTRY PRESSURE FROM PREVIOUS STRESS PERIOD. CURRENT PERIOD IS:      27

 USING ROOT PRESSURE HEAD FROM PREVIOUS STRESS PERIOD. CURRENT PERIOD IS:      27

 USING ROOT ACTIVITY FROM PREVIOUS STRESS PERIOD. CURRENT PERIOD IS:      27

 PROCESSING AG STRESS PERIOD DATA

 READING AG STRESS PERIOD DATA

 READING IRRIGATION WELL

 END PROCESSING AG STRESS PERIOD DATA OPTIONS
 
 SOLVING FOR HEAD 
                                                   Max.-Head-Change                         Max.-Flux-Residual
  Residual-Control   Outer-Iter.   Inner-Iter.     Column Row Layer    Maximum-Head-Change  Column Row Layer    Maximum-Flux-Residual          L2-NORM 
          0                 1           2             4    7     1       0.1421509355E-01       4    7    1         0.7445664382E+00      0.1985302872E+01
          0                 2           2             4    7     1      -0.1381994869E-02       4    7    1        -0.7441636133E-01      0.1984642888E+00
          0                 3           1             4    7     1       0.9403777802E-04       4    7    1         0.5205204659E-02      0.1388606497E-01

    ------------------------------------------------
       NWT REQUIRED            3 OUTER ITERATIONS 
       AND A TOTAL OF          5 INNER ITERATIONS.
    ------------------------------------------------

 NO OUTPUT CONTROL FOR STRESS PERIOD   27   TIME STEP    1
 
 SOLVING FOR HEAD 
                                                   Max.-Head-Change                         Max.-Flux-Residual
  Residual-Control   Outer-Iter.   Inner-Iter.     Column Row Layer    Maximum-Head-Change  Column Row Layer    Maximum-Flux-Residual          L2-NORM 
          0                 1           2             4    7     1       0.1410152773E-01       4    7    1         0.7385951914E+00      0.1972249227E+01
          0                 2           2             4    7     1      -0.1370953924E-02       4    7    1        -0.7381955578E-01      0.1971595521E+00
          0                 3           1             4    7     1       0.9328649717E-04       4    7    1         0.5163459803E-02      0.1379483152E-01

    ------------------------------------------------
       NWT REQUIRED            3 OUTER ITERATIONS 
       AND A TOTAL OF          5 INNER ITERATIONS.
    ------------------------------------------------

 NO OUTPUT CONTROL FOR STRESS PERIOD   27   TIME STEP    2
 
 SOLVING FOR HEAD 
                                                   Max.-Head-Change                         Max.-Flux-Residual
  Residual-Control   Outer-Iter.   Inner-Iter.     Column Row Layer    Maximum-Head-Change  Column Row Layer    Maximum-Flux-Residual          L2-NORM 
          0                 1           2             4    7     1       0.1398925355E-01       4    7    1         0.7326922885E+00      0.1959336947E+01
          0                 2           2             4    7     1      -0.1360038551E-02       4    7    1        -0.7322958102E-01      0.1958688976E+00
          0                 3           1             4    7     1       0.9254376024E-04       4    7    1         0.5122192697E-02      0.1370454161E-01

    ------------------------------------------------
       NWT REQUIRED            3 OUTER ITERATIONS 
       AND A TOTAL OF          5 INNER ITERATIONS.
    ------------------------------------------------

 NO OUTPUT CONTROL FOR STRESS PERIOD   27   TIME STEP    3
 
 SOLVING FOR HEAD 
                                                   Max.-Head-Change                         Max.-Flux-Residual
  Residual-Control   Outer-Iter.   Inner-Iter.     Column Row Layer    Maximum-Head-Change  Column Row Layer    Maximum-Flux-Residual          L2-NORM 
          0                 1           2             4    7     1       0.1387838703E-01       4    7    1         0.7268636916E+00      0.1946567510E+01
          0                 2           2             4    7     1      -0.1349260034E-02       4    7    1        -0.7264703296E-01      0.1945924847E+00
          0                 3           1             4    7     1       0.9181033628E-04       4    7    1         0.5081445090E-02      0.1361523887E-01

    ------------------------------------------------
       NWT REQUIRED            3 OUTER ITERATIONS 
       AND A TOTAL OF          5 INNER ITERATIONS.
    ------------------------------------------------

 NO OUTPUT CONTROL FOR STRESS PERIOD   27   TIME STEP    4
 
 SOLVING FOR HEAD 
                                                   Max.-Head-Change                         Max.-Flux-Residual
  Residual-Control   Outer-Iter.   Inner-Iter.     Column Row Layer    Maximum-Head-Change  Column Row Layer    Maximum-Flux-Residual          L2-NORM 
          0                 1           2             4    7     1       0.1376876560E-01       4    7    1         0.7211007421E+00      0.1933941599E+01
          0                 2           2             4    7     1      -0.1338602567E-02       4    7    1        -0.7207104621E-01      0.1933304561E+00
          0                 3           1             4    7     1       0.9108514854E-04       4    7    1         0.5041156411E-02      0.1352692323E-01

    ------------------------------------------------
       NWT REQUIRED            3 OUTER ITERATIONS 
       AND A TOTAL OF          5 INNER ITERATIONS.
    ------------------------------------------------

 NO OUTPUT CONTROL FOR STRESS PERIOD   27   TIME STEP    5
 
 SOLVING FOR HEAD 
                                                   Max.-Head-Change                         Max.-Flux-Residual
  Residual-Control   Outer-Iter.   Inner-Iter.     Column Row Layer    Maximum-Head-Change  Column Row Layer    Maximum-Flux-Residual          L2-NORM 
          0                 1           2             4    7     1       0.1366036816E-01       4    7    1         0.7154023481E+00      0.1921448014E+01
          0                 2           2             4    7     1      -0.1328064097E-02       4    7    1        -0.7150151159E-01      0.1920816821E+00
          0                 3           1             4    7     1       0.9036805859E-04       4    7    1         0.5001319068E-02      0.1343960775E-01

    ------------------------------------------------
       NWT REQUIRED            3 OUTER ITERATIONS 
       AND A TOTAL OF          5 INNER ITERATIONS.
    ------------------------------------------------

 NO OUTPUT CONTROL FOR STRESS PERIOD   27   TIME STEP    6
 
 SOLVING FOR HEAD 
                                                   Max.-Head-Change                         Max.-Flux-Residual
  Residual-Control   Outer-Iter.   Inner-Iter.     Column Row Layer    Maximum-Head-Change  Column Row Layer    Maximum-Flux-Residual          L2-NORM 
          0                 1           2             4    7     1       0.1355317559E-01       4    7    1         0.7097674152E+00      0.1909093729E+01
          0                 2           2             4    7     1      -0.1317642765E-02       4    7    1        -0.7093831973E-01      0.1908468013E+00
          0                 3           1             4    7     1       0.8965893896E-04       4    7    1         0.4961925374E-02      0.1335319710E-01

    ------------------------------------------------
       NWT REQUIRED            3 OUTER ITERATIONS 
       AND A TOTAL OF          5 INNER ITERATIONS.
    ------------------------------------------------

 NO OUTPUT CONTROL FOR STRESS PERIOD   27   TIME STEP    7
 
 SOLVING FOR HEAD 
                                                   Max.-Head-Change                         Max.-Flux-Residual
  Residual-Control   Outer-Iter.   Inner-Iter.     Column Row Layer    Maximum-Head-Change  Column Row Layer    Maximum-Flux-Residual          L2-NORM 
          0                 1           2             4    7     1       0.1344730460E-01       4    7    1         0.7042022906E+00      0.1896876424E+01
          0                 2           2             4    7     1      -0.1307349921E-02       4    7    1        -0.7038210506E-01      0.1896256116E+00
          0                 3           1             4    7     1       0.8895856216E-04       4    7    1         0.4923019729E-02      0.1326776755E-01

    ------------------------------------------------
       NWT REQUIRED            3 OUTER ITERATIONS 
       AND A TOTAL OF          5 INNER ITERATIONS.
    ------------------------------------------------

 NO OUTPUT CONTROL FOR STRESS PERIOD   27   TIME STEP    8
 
 SOLVING FOR HEAD 
                                                   Max.-Head-Change                         Max.-Flux-Residual
  Residual-Control   Outer-Iter.   Inner-Iter.     Column Row Layer    Maximum-Head-Change  Column Row Layer    Maximum-Flux-Residual          L2-NORM 
          0                 1           2             4    7     1       0.1334259142E-01       4    7    1         0.6986983495E+00      0.1884781403E+01
          0                 2           2             4    7     1      -0.1297169638E-02       4    7    1        -0.6983200550E-01      0.1884166542E+00
          0                 3           1             4    7     1       0.8826584506E-04       4    7    1         0.4884541806E-02      0.1318318633E-01

    ------------------------------------------------
       NWT REQUIRED            3 OUTER ITERATIONS 
       AND A TOTAL OF          5 INNER ITERATIONS.
    ------------------------------------------------

 NO OUTPUT CONTROL FOR STRESS PERIOD   27   TIME STEP    9
 
 SOLVING FOR HEAD 
                                                   Max.-Head-Change                         Max.-Flux-Residual
  Residual-Control   Outer-Iter.   Inner-Iter.     Column Row Layer    Maximum-Head-Change  Column Row Layer    Maximum-Flux-Residual          L2-NORM 
          0                 1           2             4    7     1       0.1323915579E-01       4    7    1         0.6932617766E+00      0.1872827997E+01
          0                 2           2             4    7     1      -0.1287113561E-02       4    7    1        -0.6928863921E-01      0.1872218162E+00
          0                 3           1             4    7     1       0.8758157920E-04       4    7    1         0.4846534856E-02      0.1309958757E-01

    ------------------------------------------------
       NWT REQUIRED            3 OUTER ITERATIONS 
       AND A TOTAL OF          5 INNER ITERATIONS.
    ------------------------------------------------

 NO OUTPUT CONTROL FOR STRESS PERIOD   27   TIME STEP   10
 
 SOLVING FOR HEAD 
                                                   Max.-Head-Change                         Max.-Flux-Residual
  Residual-Control   Outer-Iter.   Inner-Iter.     Column Row Layer    Maximum-Head-Change  Column Row Layer    Maximum-Flux-Residual          L2-NORM 
          0                 1           2             4    7     1       0.1313697356E-01       4    7    1         0.6878914429E+00      0.1861002321E+01
          0                 2           2             4    7     1      -0.1277179342E-02       4    7    1        -0.6875189338E-01      0.1860397597E+00
          0                 3           1             4    7     1       0.8690560531E-04       4    7    1         0.4808991001E-02      0.1301691416E-01

    ------------------------------------------------
       NWT REQUIRED            3 OUTER ITERATIONS 
       AND A TOTAL OF          5 INNER ITERATIONS.
    ------------------------------------------------

 NO OUTPUT CONTROL FOR STRESS PERIOD   27   TIME STEP   11
 
 SOLVING FOR HEAD 
                                                   Max.-Head-Change                         Max.-Flux-Residual
  Residual-Control   Outer-Iter.   Inner-Iter.     Column Row Layer    Maximum-Head-Change  Column Row Layer    Maximum-Flux-Residual          L2-NORM 
          0                 1           2             4    7     1       0.1303575301E-01       4    7    1         0.6825714178E+00      0.1849298671E+01
          0                 2           2             4    7     1      -0.1267338617E-02       4    7    1        -0.6822017570E-01      0.1848699705E+00
          0                 3           1             4    7     1       0.8623599307E-04       4    7    1         0.4771798830E-02      0.1293508756E-01

    ------------------------------------------------
       NWT REQUIRED            3 OUTER ITERATIONS 
       AND A TOTAL OF          5 INNER ITERATIONS.
    ------------------------------------------------

 NO OUTPUT CONTROL FOR STRESS PERIOD   27   TIME STEP   12
 
 SOLVING FOR HEAD 
                                                   Max.-Head-Change                         Max.-Flux-Residual
  Residual-Control   Outer-Iter.   Inner-Iter.     Column Row Layer    Maximum-Head-Change  Column Row Layer    Maximum-Flux-Residual          L2-NORM 
          0                 1           2             4    7     1       0.1293574827E-01       4    7    1         0.6773159316E+00      0.1837716711E+01
          0                 2           2             4    7     1      -0.1257616097E-02       4    7    1        -0.6769490859E-01      0.1837122420E+00
          0                 3           1             4    7     1       0.8557442442E-04       4    7    1         0.4735057880E-02      0.1285400898E-01

    ------------------------------------------------
       NWT REQUIRED            3 OUTER ITERATIONS 
       AND A TOTAL OF          5 INNER ITERATIONS.
    ------------------------------------------------

 NO OUTPUT CONTROL FOR STRESS PERIOD   27   TIME STEP   13
 
 SOLVING FOR HEAD 
                                                   Max.-Head-Change                         Max.-Flux-Residual
  Residual-Control   Outer-Iter.   Inner-Iter.     Column Row Layer    Maximum-Head-Change  Column Row Layer    Maximum-Flux-Residual          L2-NORM 
          0                 1           2             4    7     1       0.1283694057E-01       4    7    1         0.6721234832E+00      0.1826267634E+01
          0                 2           2             4    7     1      -0.1248009952E-02       4    7    1        -0.6717594187E-01      0.1825678372E+00
          0                 3           1             4    7     1       0.8492077438E-04       4    7    1         0.4698757627E-02      0.1277401436E-01

    ------------------------------------------------
       NWT REQUIRED            3 OUTER ITERATIONS 
       AND A TOTAL OF          5 INNER ITERATIONS.
    ------------------------------------------------

 NO OUTPUT CONTROL FOR STRESS PERIOD   27   TIME STEP   14
 
 SOLVING FOR HEAD 
                                                   Max.-Head-Change                         Max.-Flux-Residual
  Residual-Control   Outer-Iter.   Inner-Iter.     Column Row Layer    Maximum-Head-Change  Column Row Layer    Maximum-Flux-Residual          L2-NORM 
          0                 1           2             4    7     1       0.1273917259E-01       4    7    1         0.6669857598E+00      0.1814932940E+01
          0                 2           2             4    7     1      -0.1238504892E-02       4    7    1        -0.6666244479E-01      0.1814348630E+00
          0                 3           1             4    7     1       0.8427400230E-04       4    7    1         0.4662839940E-02      0.1269475949E-01

    ------------------------------------------------
       NWT REQUIRED            3 OUTER ITERATIONS 
       AND A TOTAL OF          5 INNER ITERATIONS.
    ------------------------------------------------

 NO OUTPUT CONTROL FOR STRESS PERIOD   27   TIME STEP   15
 
 SOLVING FOR HEAD 
                                                   Max.-Head-Change                         Max.-Flux-Residual
  Residual-Control   Outer-Iter.   Inner-Iter.     Column Row Layer    Maximum-Head-Change  Column Row Layer    Maximum-Flux-Residual          L2-NORM 
          0                 1           2             4    7     1       0.1264256385E-01       4    7    1         0.6619092839E+00      0.1803718887E+01
          0                 2           2             4    7     1      -0.1229112533E-02       4    7    1        -0.6615506922E-01      0.1803139540E+00
          0                 3           1             4    7     1       0.8363489926E-04       4    7    1         0.4627350444E-02      0.1261634409E-01

    ------------------------------------------------
       NWT REQUIRED            3 OUTER ITERATIONS 
       AND A TOTAL OF          5 INNER ITERATIONS.
    ------------------------------------------------

 NO OUTPUT CONTROL FOR STRESS PERIOD   27   TIME STEP   16
 
 SOLVING FOR HEAD 
                                                   Max.-Head-Change                         Max.-Flux-Residual
  Residual-Control   Outer-Iter.   Inner-Iter.     Column Row Layer    Maximum-Head-Change  Column Row Layer    Maximum-Flux-Residual          L2-NORM 
          0                 1           2             4    7     1       0.1254709067E-01       4    7    1         0.6568929124E+00      0.1792625960E+01
          0                 2           2             4    7     1      -0.1219830575E-02       4    7    1        -0.6565370094E-01      0.1792051444E+00
          0                 3           1             4    7     1       0.8300330812E-04       4    7    1         0.4592281141E-02      0.1253877520E-01

    ------------------------------------------------
       NWT REQUIRED            3 OUTER ITERATIONS 
       AND A TOTAL OF          5 INNER ITERATIONS.
    ------------------------------------------------

 NO OUTPUT CONTROL FOR STRESS PERIOD   27   TIME STEP   17
 
 SOLVING FOR HEAD 
                                                   Max.-Head-Change                         Max.-Flux-Residual
  Residual-Control   Outer-Iter.   Inner-Iter.     Column Row Layer    Maximum-Head-Change  Column Row Layer    Maximum-Flux-Residual          L2-NORM 
          0                 1           2             4    7     1       0.1245260175E-01       4    7    1         0.6519280771E+00      0.1781654628E+01
          0                 2           2             4    7     1      -0.1210644308E-02       4    7    1        -0.6515748354E-01      0.1781084553E+00
          0                 3           1             4    7     1       0.8237822892E-04       4    7    1         0.4557572147E-02      0.1246205303E-01

    ------------------------------------------------
       NWT REQUIRED            3 OUTER ITERATIONS 
       AND A TOTAL OF          5 INNER ITERATIONS.
    ------------------------------------------------

 NO OUTPUT CONTROL FOR STRESS PERIOD   27   TIME STEP   18
 
 SOLVING FOR HEAD 
                                                   Max.-Head-Change                         Max.-Flux-Residual
  Residual-Control   Outer-Iter.   Inner-Iter.     Column Row Layer    Maximum-Head-Change  Column Row Layer    Maximum-Flux-Residual          L2-NORM 
          0                 1           2             4    7     1       0.1235908194E-01       4    7    1         0.6470142739E+00      0.1770785136E+01
          0                 2           2             4    7     1      -0.1201552258E-02       4    7    1        -0.6466636665E-01      0.1770167478E+00
          0                 3           1             4    7     1       0.8175956049E-04       4    7    1         0.4523219902E-02      0.1238568862E-01

    ------------------------------------------------
       NWT REQUIRED            3 OUTER ITERATIONS 
       AND A TOTAL OF          5 INNER ITERATIONS.
    ------------------------------------------------

 NO OUTPUT CONTROL FOR STRESS PERIOD   27   TIME STEP   19
 
 SOLVING FOR HEAD 
                                                   Max.-Head-Change                         Max.-Flux-Residual
  Residual-Control   Outer-Iter.   Inner-Iter.     Column Row Layer    Maximum-Head-Change  Column Row Layer    Maximum-Flux-Residual          L2-NORM 
          0                 1           2             4    7     1       0.1226665115E-01       4    7    1         0.6421580575E+00      0.1760038774E+01
          0                 2           2             4    7     1      -0.1192566085E-02       4    7    1        -0.6418100540E-01      0.1759478243E+00
          0                 3           1             4    7     1       0.8114809652E-04       4    7    1         0.4489270253E-02      0.1231089803E-01

    ------------------------------------------------
       NWT REQUIRED            3 OUTER ITERATIONS 
       AND A TOTAL OF          5 INNER ITERATIONS.
    ------------------------------------------------

 NO OUTPUT CONTROL FOR STRESS PERIOD   27   TIME STEP   20
 
 SOLVING FOR HEAD 
                                                   Max.-Head-Change                         Max.-Flux-Residual
  Residual-Control   Outer-Iter.   Inner-Iter.     Column Row Layer    Maximum-Head-Change  Column Row Layer    Maximum-Flux-Residual          L2-NORM 
          0                 1           2             4    7     1       0.1217529287E-01       4    7    1         0.6373583056E+00      0.1749413281E+01
          0                 2           2             4    7     1      -0.1183684182E-02       4    7    1        -0.6370128761E-01      0.1748857303E+00
          0                 3           1             4    7     1       0.8054372706E-04       4    7    1         0.4455715346E-02      0.1223659985E-01

    ------------------------------------------------
       NWT REQUIRED            3 OUTER ITERATIONS 
       AND A TOTAL OF          5 INNER ITERATIONS.
    ------------------------------------------------

 NO OUTPUT CONTROL FOR STRESS PERIOD   27   TIME STEP   21
 
 SOLVING FOR HEAD 
                                                   Max.-Head-Change                         Max.-Flux-Residual
  Residual-Control   Outer-Iter.   Inner-Iter.     Column Row Layer    Maximum-Head-Change  Column Row Layer    Maximum-Flux-Residual          L2-NORM 
          0                 1           2             4    7     1       0.1208485132E-01       4    7    1         0.6326068198E+00      0.1738884233E+01
          0                 2           2             4    7     1      -0.1174891404E-02       4    7    1        -0.6322639390E-01      0.1738333053E+00
          0                 3           1             4    7     1       0.7994542223E-04       4    7    1         0.4422497851E-02      0.1216298504E-01

    ------------------------------------------------
       NWT REQUIRED            3 OUTER ITERATIONS 
       AND A TOTAL OF          5 INNER ITERATIONS.
    ------------------------------------------------

 NO OUTPUT CONTROL FOR STRESS PERIOD   27   TIME STEP   22
 
 SOLVING FOR HEAD 
                                                   Max.-Head-Change                         Max.-Flux-Residual
  Residual-Control   Outer-Iter.   Inner-Iter.     Column Row Layer    Maximum-Head-Change  Column Row Layer    Maximum-Flux-Residual          L2-NORM 
          0                 1           2             4    7     1       0.1199558531E-01       4    7    1         0.6279175475E+00      0.1728477516E+01
          0                 2           2             4    7     1      -0.1166212914E-02       4    7    1        -0.6275771823E-01      0.1727931039E+00
          0                 3           1             4    7     1       0.7935489461E-04       4    7    1         0.4389715327E-02      0.1209021117E-01

    ------------------------------------------------
       NWT REQUIRED            3 OUTER ITERATIONS 
       AND A TOTAL OF          5 INNER ITERATIONS.
    ------------------------------------------------

 NO OUTPUT CONTROL FOR STRESS PERIOD   27   TIME STEP   23
 
 SOLVING FOR HEAD 
                                                   Max.-Head-Change                         Max.-Flux-Residual
  Residual-Control   Outer-Iter.   Inner-Iter.     Column Row Layer    Maximum-Head-Change  Column Row Layer    Maximum-Flux-Residual          L2-NORM 
          0                 1           2             4    7     1       0.1190706382E-01       4    7    1         0.6232672006E+00      0.1718173904E+01
          0                 2           2             4    7     1      -0.1157606807E-02       4    7    1        -0.6229293304E-01      0.1717630867E+00
          0                 3           1             4    7     1       0.7876929228E-04       4    7    1         0.4357204933E-02      0.1201814837E-01

    ------------------------------------------------
       NWT REQUIRED            3 OUTER ITERATIONS 
       AND A TOTAL OF          5 INNER ITERATIONS.
    ------------------------------------------------

 NO OUTPUT CONTROL FOR STRESS PERIOD   27   TIME STEP   24
 
 SOLVING FOR HEAD 
                                                   Max.-Head-Change                         Max.-Flux-Residual
  Residual-Control   Outer-Iter.   Inner-Iter.     Column Row Layer    Maximum-Head-Change  Column Row Layer    Maximum-Flux-Residual          L2-NORM 
          0                 1           2             4    7     1       0.1181968626E-01       4    7    1         0.6186774801E+00      0.1707974030E+01
          0                 2           2             4    7     1      -0.1149111914E-02       4    7    1        -0.6183420729E-01      0.1707436476E+00
          0                 3           1             4    7     1       0.7819125722E-04       4    7    1         0.4325118354E-02      0.1194685609E-01

    ------------------------------------------------
       NWT REQUIRED            3 OUTER ITERATIONS 
       AND A TOTAL OF          5 INNER ITERATIONS.
    ------------------------------------------------

 NO OUTPUT CONTROL FOR STRESS PERIOD   27   TIME STEP   25
 
 SOLVING FOR HEAD 
                                                   Max.-Head-Change                         Max.-Flux-Residual
  Residual-Control   Outer-Iter.   Inner-Iter.     Column Row Layer    Maximum-Head-Change  Column Row Layer    Maximum-Flux-Residual          L2-NORM 
          0                 1           2             4    7     1       0.1173316087E-01       4    7    1         0.6141323875E+00      0.1697879843E+01
          0                 2           2             4    7     1      -0.1140699869E-02       4    7    1        -0.6137994199E-01      0.1697346339E+00
          0                 3           1             4    7     1       0.7761885972E-04       4    7    1         0.4293343784E-02      0.1187624189E-01

    ------------------------------------------------
       NWT REQUIRED            3 OUTER ITERATIONS 
       AND A TOTAL OF          5 INNER ITERATIONS.
    ------------------------------------------------

 NO OUTPUT CONTROL FOR STRESS PERIOD   27   TIME STEP   26
 
 SOLVING FOR HEAD 
                                                   Max.-Head-Change                         Max.-Flux-Residual
  Residual-Control   Outer-Iter.   Inner-Iter.     Column Row Layer    Maximum-Head-Change  Column Row Layer    Maximum-Flux-Residual          L2-NORM 
          0                 1           2             4    7     1       0.1164761090E-01       4    7    1         0.6096388195E+00      0.1687886776E+01
          0                 2           2             4    7     1      -0.1132382656E-02       4    7    1        -0.6093082638E-01      0.1687357610E+00
          0                 3           1             4    7     1       0.7705291475E-04       4    7    1         0.4261929416E-02      0.1180639263E-01

    ------------------------------------------------
       NWT REQUIRED            3 OUTER ITERATIONS 
       AND A TOTAL OF          5 INNER ITERATIONS.
    ------------------------------------------------

 NO OUTPUT CONTROL FOR STRESS PERIOD   27   TIME STEP   27
 
 SOLVING FOR HEAD 
                                                   Max.-Head-Change                         Max.-Flux-Residual
  Residual-Control   Outer-Iter.   Inner-Iter.     Column Row Layer    Maximum-Head-Change  Column Row Layer    Maximum-Flux-Residual          L2-NORM 
          0                 1           2             4    7     1       0.1156288591E-01       4    7    1         0.6051884837E+00      0.1677997125E+01
          0                 2           2             4    7     1      -0.1124145648E-02       4    7    1        -0.6048603169E-01      0.1677472189E+00
          0                 3           1             4    7     1       0.7649242748E-04       4    7    1         0.4230817291E-02      0.1173718575E-01

    ------------------------------------------------
       NWT REQUIRED            3 OUTER ITERATIONS 
       AND A TOTAL OF          5 INNER ITERATIONS.
    ------------------------------------------------

 NO OUTPUT CONTROL FOR STRESS PERIOD   27   TIME STEP   28
 
 SOLVING FOR HEAD 
                                                   Max.-Head-Change                         Max.-Flux-Residual
  Residual-Control   Outer-Iter.   Inner-Iter.     Column Row Layer    Maximum-Head-Change  Column Row Layer    Maximum-Flux-Residual          L2-NORM 
          0                 1           2             4    7     1       0.1147911054E-01       4    7    1         0.6007882635E+00      0.1668210822E+01
          0                 2           2             4    7     1      -0.1116000963E-02       4    7    1        -0.6004624595E-01      0.1667689721E+00
          0                 3           1             4    7     1       0.7593822246E-04       4    7    1         0.4200055521E-02      0.1166876749E-01

    ------------------------------------------------
       NWT REQUIRED            3 OUTER ITERATIONS 
       AND A TOTAL OF          5 INNER ITERATIONS.
    ------------------------------------------------

 NO OUTPUT CONTROL FOR STRESS PERIOD   27   TIME STEP   29
 
 SOLVING FOR HEAD 
                                                   Max.-Head-Change                         Max.-Flux-Residual
  Residual-Control   Outer-Iter.   Inner-Iter.     Column Row Layer    Maximum-Head-Change  Column Row Layer    Maximum-Flux-Residual          L2-NORM 
          0                 1           2             4    7     1       0.1139626606E-01       4    7    1         0.5964372795E+00      0.1658516339E+01
          0                 2           2             4    7     1      -0.1107946781E-02       4    7    1        -0.5961138121E-01      0.1657999531E+00
          0                 3           1             4    7     1       0.7539017556E-04       4    7    1         0.4169637969E-02      0.1160096880E-01

    ------------------------------------------------
       NWT REQUIRED            3 OUTER ITERATIONS 
       AND A TOTAL OF          5 INNER ITERATIONS.
    ------------------------------------------------

 NO OUTPUT CONTROL FOR STRESS PERIOD   27   TIME STEP   30



 STREAM LISTING     PERIOD     27   STEP       30

 LAYER ROW COL. STREAM  RCH.  FLOW INTO     FLOW TO   FLOW OUT OF   OVRLND.     DIRECT     STREAM       STREAM     STREAM     STREAM   STREAMBED  STREAMBED
                SEG.NO.  NO.  STRM. RCH.    AQUIFER    STRM. RCH.    RUNOFF     PRECIP       ET          HEAD       DEPTH      WIDTH   CONDCTNC.   GRADIENT

   1    1    1     1     1    1.9000E+01  2.1427E-01   1.8786E+01  0.000E+00  0.000E+00  0.000E+00  1.09413E+03  1.082E+00  1.166E+01  5.249E-02  1.361E+00
   1    2    2     1     2    1.8786E+01  3.3054E-01   1.8455E+01  0.000E+00  0.000E+00  0.000E+00  1.08914E+03  1.077E+00  1.158E+01  8.107E-02  1.359E+00
   1    3    3     1     3    1.8455E+01  2.8064E-01   1.8175E+01  0.000E+00  0.000E+00  0.000E+00  1.08349E+03  1.072E+00  1.149E+01  6.892E-02  1.357E+00
   1    3    4     1     4    1.8175E+01  2.5740E-01   1.7917E+01  0.000E+00  0.000E+00  0.000E+00  1.07848E+03  1.068E+00  1.140E+01  6.328E-02  1.356E+00
   1    4    5     2     1    1.5917E+01  3.0542E-01   1.5612E+01  0.000E+00  0.000E+00  0.000E+00  1.07285E+03  9.157E-01  1.200E+01  7.800E-02  1.305E+00
   1    5    6     2     2    1.5612E+01  2.3438E-01   1.5377E+01  0.000E+00  0.000E+00  0.000E+00  1.06742E+03  9.063E-01  1.200E+01  6.000E-02  1.302E+00
   1    6    6     2     3    1.5377E+01  2.3388E-01   1.5143E+01  0.000E+00  0.000E+00  0.000E+00  1.06269E+03  8.980E-01  1.200E+01  6.000E-02  1.299E+00
   1    7    6     2     4    1.5143E+01  2.3338E-01   1.4910E+01  0.000E+00  0.000E+00  0.000E+00  1.05797E+03  8.897E-01  1.200E+01  6.000E-02  1.297E+00
   1    8    6     2     5    1.4910E+01  2.3289E-01   1.4677E+01  0.000E+00  0.000E+00  0.000E+00  1.05324E+03  8.814E-01  1.200E+01  6.000E-02  1.294E+00
   1    3    5     3     1    2.0000E+00  2.8252E-01   1.7175E+00  0.000E+00  0.000E+00  0.000E+00  1.07555E+03  1.909E+00  9.636E+00  7.227E-02  1.955E+00
   1    3    6     3     2    1.7175E+00  2.4905E-01   1.4684E+00  0.000E+00  0.000E+00  0.000E+00  1.07264E+03  1.727E+00  8.909E+00  6.682E-02  1.864E+00
   1    3    7     3     3    1.4684E+00  1.9718E-01   1.2712E+00  0.000E+00  0.000E+00  0.000E+00  1.06987E+03  1.555E+00  8.218E+00  5.547E-02  1.777E+00
   1    4    8     3     4    1.2712E+00  2.2567E-01   1.0456E+00  0.000E+00  0.000E+00  0.000E+00  1.06682E+03  1.364E+00  7.455E+00  6.709E-02  1.682E+00
   1    5    8     3     5    1.0456E+00  1.5790E-01   8.8768E-01  0.000E+00  0.000E+00  0.000E+00  1.06362E+03  1.164E+00  6.655E+00  4.991E-02  1.582E+00
   1    6    8     3     6    8.8768E-01  5.5980E-02   8.3170E-01  0.000E+00  0.000E+00  0.000E+00  1.06158E+03  1.036E+00  6.145E+00  1.844E-02  1.518E+00
   1    5   10     4     1    1.0000E+01  9.0919E-02   9.9091E+00  0.000E+00  0.000E+00  0.000E+00  1.07836E+03  6.368E-01  1.000E+01  2.500E-02  1.212E+00
   1    5    9     4     2    9.9091E+00  1.8158E-01   9.7275E+00  0.000E+00  0.000E+00  0.000E+00  1.07154E+03  6.315E-01  1.000E+01  5.000E-02  1.211E+00
   1    6    8     4     3    9.7275E+00  1.2689E-01   9.6006E+00  0.000E+00  0.000E+00  0.000E+00  1.06381E+03  6.256E-01  1.000E+01  3.500E-02  1.209E+00
   1    6    8     5     1    1.0432E+01  2.2686E-01   1.0205E+01  0.000E+00  0.000E+00  0.000E+00  1.05868E+03  6.790E-01  1.542E+01  6.166E-02  1.226E+00
   1    7    7     5     2    1.0205E+01  2.7894E-01   9.9265E+00  0.000E+00  0.000E+00  0.000E+00  1.05417E+03  6.732E-01  1.519E+01  7.594E-02  1.224E+00
   1    8    7     5     3    9.9265E+00  1.9221E-01   9.7343E+00  0.000E+00  0.000E+00  0.000E+00  1.04992E+03  6.676E-01  1.497E+01  5.241E-02  1.223E+00
   1    8    6     5     4    9.7343E+00  1.3577E-01   9.5985E+00  0.000E+00  0.000E+00  0.000E+00  1.04691E+03  6.637E-01  1.482E+01  3.706E-02  1.221E+00
   1    9    6     6     1    2.4276E+01  2.5176E-01   2.4024E+01  0.000E+00  0.000E+00  0.000E+00  1.04392E+03  1.196E+00  1.200E+01  6.000E-02  1.399E+00
   1   10    7     6     2    2.4024E+01  2.5131E-01   2.3773E+01  0.000E+00  0.000E+00  0.000E+00  1.03937E+03  1.188E+00  1.200E+01  6.000E-02  1.396E+00
   1   11    7     6     3    2.3773E+01  2.5086E-01   2.3522E+01  0.000E+00  0.000E+00  0.000E+00  1.03482E+03  1.181E+00  1.200E+01  6.000E-02  1.394E+00
   1   12    7     6     4    2.3522E+01  2.5041E-01   2.3271E+01  0.000E+00  0.000E+00  0.000E+00  1.03026E+03  1.173E+00  1.200E+01  6.000E-02  1.391E+00
   1   13    7     6     5    2.3271E+01  4.4682E-03   2.3267E+01  0.000E+00  0.000E+00  0.000E+00  1.02708E+03  1.170E+00  1.200E+01  2.400E-02  6.206E-02
   1   14    9     7     1    1.5000E+02  1.3409E+00   1.4866E+02  0.000E+00  0.000E+00  0.000E+00  1.03987E+03  2.288E+00  5.529E+01  5.593E-01  7.991E-01
   1   13    8     7     2    1.4866E+02  1.8754E+00   1.4678E+02  0.000E+00  0.000E+00  0.000E+00  1.03478E+03  2.279E+00  5.526E+01  6.148E-01  1.017E+00
   1   13    7     7     3    1.4678E+02  1.5618E+00   1.4522E+02  0.000E+00  0.000E+00  0.000E+00  1.02969E+03  2.270E+00  5.521E+01  5.584E-01  9.323E-01
   1   13    6     8     1    1.6849E+02  1.0122E+00   1.6748E+02  0.000E+00  0.000E+00  0.000E+00  1.02481E+03  2.939E+00  4.262E+01  4.343E-01  7.769E-01
   1   13    5     8     2    1.6748E+02  2.6842E-01   1.6721E+02  0.000E+00  0.000E+00  0.000E+00  1.01856E+03  2.935E+00  4.255E+01  4.336E-01  2.063E-01
   1   13    4     8     3    1.6721E+02 -2.1089E+00   1.6932E+02  0.000E+00  0.000E+00  0.000E+00  1.01232E+03  2.941E+00  4.264E+01  4.345E+00 -1.618E-01
   1   13    3     8     4    1.6932E+02 -3.4997E+00   1.7282E+02  0.000E+00  0.000E+00  0.000E+00  1.00608E+03  2.959E+00  4.291E+01  4.372E+00 -2.668E-01
   1   13    2     8     5    1.7282E+02 -2.5482E+00   1.7536E+02  0.000E+00  0.000E+00  0.000E+00  9.99854E+02  2.979E+00  4.319E+01  4.401E+00 -1.930E-01
   1   13    1     8     6    1.7536E+02 -1.9780E+00   1.7734E+02  0.000E+00  0.000E+00  0.000E+00  9.94868E+02  2.993E+00  4.340E+01  2.654E+00 -2.485E-01





UNSATURATED ZONE PACKAGE VOLUMETRIC BUDGET FOR  TIME STEP    30 STRESS PERIOD   27
  ------------------------------------------------------------------------------



     CUMULATIVE VOLUMES      L**3       RATES FOR THIS TIME STEP      L**3/T
     ------------------                 ------------------------

           IN:                                      IN:
           ---                                      ---
        INFILTRATION =  1009706233.4930          INFILTRATION =           0.8475

          OUT:                                     OUT:
          ----                                     ----
              UZF ET =   864570248.5396                UZF ET =           0.7500
        UZF RECHARGE =   144037577.4416          UZF RECHARGE =           0.0001

            IN - OUT =     1098407.5118              IN - OUT =       9.7351E-02

          STORAGE:                                 STORAGE:
          --------                                 --------
      STORAGE CHANGE =     1098393.1654        STORAGE CHANGE =       9.7351E-02

 PERCENT DISCREPANCY IS DIFFERENCE BETWEEN IN-OUT MINUS CHANGE IN STORAGE
 DIVIDED BY THE AVERAGE OF IN AND OUT TIMES 100

 PERCENT DISCREPANCY =           0.00     PERCENT DISCREPANCY =           0.00






1
  VOLUMETRIC BUDGET FOR AGRICULTURAL FIELDS AT  END OF TIME STEP   30, STRESS PERIOD  27
  ------------------------------------------------------------------------------

     CUMULATIVE VOLUMES      L**3       RATES FOR THIS TIME STEP      L**3/T
     ------------------                 ------------------------

           IN:                                      IN:
           ---                                      ---
               AG WELLS  =   951679488.0000                 AG WELLS  =           0.0000
      DIVERSION SEGMENTS =           0.0000        DIVERSION SEGMENTS =           0.0000
           GW IRRIGATION =           0.0000             GW IRRIGATION =           0.0000
           SW IRRIGATION =           0.0000             SW IRRIGATION =           0.0000
        SYSTEM LOSSES GW =           0.0000          SYSTEM LOSSES GW =           0.0000
        SYSTEM LOSSES SW =           0.0000          SYSTEM LOSSES SW =           0.0000

                TOTAL IN =   951679488.0000                  TOTAL IN =           0.0000

          OUT:                                     OUT:
          ----                                     ----
               AG WELLS  =           0.0000                 AG WELLS  =           0.0000
      DIVERSION SEGMENTS =           0.0000        DIVERSION SEGMENTS =           0.0000
           GW IRRIGATION =   951679488.0000             GW IRRIGATION =           0.0000
           SW IRRIGATION =           0.0000             SW IRRIGATION =           0.0000
        SYSTEM LOSSES GW =           0.0000          SYSTEM LOSSES GW =           0.0000
        SYSTEM LOSSES SW =           0.0000          SYSTEM LOSSES SW =           0.0000

               TOTAL OUT =   951679488.0000                 TOTAL OUT =           0.0000

                IN - OUT =           0.0000                  IN - OUT =           0.0000

     PERCENT DISCREPANCY =           0.00         PERCENT DISCREPANCY =           0.00



1
  VOLUMETRIC BUDGET FOR ENTIRE MODEL AT END OF TIME STEP   30, STRESS PERIOD  27
  ------------------------------------------------------------------------------

     CUMULATIVE VOLUMES      L**3       RATES FOR THIS TIME STEP      L**3/T
     ------------------                 ------------------------

           IN:                                      IN:
           ---                                      ---
             STORAGE     =  1248718848.0000               STORAGE     =           4.9455
       CONSTANT HEAD     =           0.0000         CONSTANT HEAD     =           0.0000
     HEAD DEP BOUNDS     =    19548856.0000       HEAD DEP BOUNDS     =           0.2861
      STREAM LEAKAGE     =   847046016.0000        STREAM LEAKAGE     =          11.7918
        UZF RECHARGE     =   144037472.0000          UZF RECHARGE     =       1.4895E-04
               GW ET     =           0.0000                 GW ET     =           0.0000
     SURFACE LEAKAGE     =           0.0000       SURFACE LEAKAGE     =           0.0000
           AG WELLS      =           0.0000             AG WELLS      =           0.0000

                TOTAL IN =  2259351040.0000                  TOTAL IN =          17.0235

          OUT:                                     OUT:
          ----                                     ----
             STORAGE     =   561529792.0000               STORAGE     =           6.5999
       CONSTANT HEAD     =           0.0000         CONSTANT HEAD     =           0.0000
     HEAD DEP BOUNDS     =    20107966.0000       HEAD DEP BOUNDS     =           0.2893
      STREAM LEAKAGE     =   708505088.0000        STREAM LEAKAGE     =          10.1348
        UZF RECHARGE     =           0.0000          UZF RECHARGE     =           0.0000
               GW ET     =    17516984.0000                 GW ET     =           0.0000
     SURFACE LEAKAGE     =           0.0000       SURFACE LEAKAGE     =           0.0000
           AG WELLS      =   951679488.0000             AG WELLS      =           0.0000

               TOTAL OUT =  2259339264.0000                 TOTAL OUT =          17.0240

                IN - OUT =       11776.0000                  IN - OUT =      -4.6730E-04

     PERCENT DISCREPANCY =           0.00         PERCENT DISCREPANCY =          -0.00






         TIME SUMMARY AT END OF TIME STEP   30 IN STRESS PERIOD   27
                    SECONDS     MINUTES      HOURS       DAYS        YEARS
                    -----------------------------------------------------------
   TIME STEP LENGTH  87667.      1461.1      24.352      1.0147     2.77799E-03
 STRESS PERIOD TIME 2.63000E+06  43833.      730.56      30.440     8.33397E-02
         TOTAL TIME 6.84668E+07 1.14111E+06  19019.      792.44      2.1696    
1
1
                            STRESS PERIOD NO.   28, LENGTH =   2630000.    
                            -----------------------------------------------

                              NUMBER OF TIME STEPS =    30

                               MULTIPLIER FOR DELT =     1.000

                            INITIAL TIME STEP SIZE =   87666.66    

 REUSING NON-PARAMETER GHB CELLS FROM LAST STRESS PERIOD

      2 GHB CELLS

 REUSING STREAM SEGMENT DATA FROM LAST STRESS PERIOD



            AREAL INFILTRATION RATE
 READING ON UNIT   19 WITH FORMAT: (FREE)              

            1           2           3           4           5           6           7           8           9          10
 ........................................................................................................................
   1   1.0000E-10  2.0000E-10   0.000       0.000       0.000       0.000       0.000       0.000       0.000       0.000    
   2   2.0000E-10  1.0000E-10  2.0000E-10   0.000       0.000      8.0000E-10  8.0000E-10  5.0000E-10   0.000       0.000    
   3    0.000      5.0000E-10  1.0000E-10  1.0000E-10  8.0000E-10  8.0000E-10  5.0000E-10  5.0000E-10   0.000       0.000    
   4   8.0000E-10  5.0000E-10  1.0000E-10  1.0000E-10  1.0000E-10  1.0000E-10  1.0000E-10  1.0000E-10  2.0000E-10   0.000    
   5   8.0000E-10  5.0000E-10  1.0000E-10  1.0000E-10  1.0000E-10  1.0000E-10  1.0000E-10  1.0000E-10  1.0000E-10  1.0000E-10
   6   8.0000E-10  5.0000E-10  5.0000E-10  2.0000E-10  2.0000E-10  1.0000E-10  1.0000E-10  1.0000E-10  1.0000E-10  5.0000E-10
   7   8.0000E-10  5.0000E-10  5.0000E-10  2.0000E-10  2.0000E-10  1.0000E-10  1.0000E-10  2.0000E-10  2.0000E-10   0.000    
   8    0.000      5.0000E-10  5.0000E-10  2.0000E-10  2.0000E-10  1.0000E-10  1.0000E-10  2.0000E-10  5.0000E-10   0.000    
   9    0.000      5.0000E-10  5.0000E-10  2.0000E-10  2.0000E-10  1.0000E-10  1.0000E-10  2.0000E-10  5.0000E-10   0.000    
  10    0.000      5.0000E-10  5.0000E-10  2.0000E-10  2.0000E-10  1.0000E-10  1.0000E-10  2.0000E-10  5.0000E-10  8.0000E-10
  11    0.000      1.0000E-10  1.0000E-10  1.0000E-10  1.0000E-10  1.0000E-10  1.0000E-10  2.0000E-10  5.0000E-10   0.000    
  12   1.0000E-10  1.0000E-10  1.0000E-10  1.0000E-10  1.0000E-10  1.0000E-10  1.0000E-10  1.0000E-10  2.0000E-10   0.000    
  13   1.0000E-10  1.0000E-10  2.0000E-10  2.0000E-10  2.0000E-10  2.0000E-10  2.0000E-10  1.0000E-10  1.0000E-10   0.000    
  14    0.000      2.0000E-10  5.0000E-10  5.0000E-10  5.0000E-10  5.0000E-10  5.0000E-10  2.0000E-10  1.0000E-10   0.000    
  15    0.000       0.000      8.0000E-10  8.0000E-10  8.0000E-10  8.0000E-10   0.000       0.000       0.000       0.000    

                  ET RATE =  5.000000E-10

 USING ET EXTINCTION DEPTH FROM PREVIOUS STRESS PERIOD. CURRENT PERIOD IS:      28

 USING EXTINCTION WATER CONTENT FROM PREVIOUS STRESS PERIOD. CURRENT PERIOD IS:      28

 USING AIR ENTRY PRESSURE FROM PREVIOUS STRESS PERIOD. CURRENT PERIOD IS:      28

 USING ROOT PRESSURE HEAD FROM PREVIOUS STRESS PERIOD. CURRENT PERIOD IS:      28

 USING ROOT ACTIVITY FROM PREVIOUS STRESS PERIOD. CURRENT PERIOD IS:      28

 PROCESSING AG STRESS PERIOD DATA

 READING AG STRESS PERIOD DATA

 READING IRRIGATION WELL

 END PROCESSING AG STRESS PERIOD DATA OPTIONS
 
 SOLVING FOR HEAD 
                                                   Max.-Head-Change                         Max.-Flux-Residual
  Residual-Control   Outer-Iter.   Inner-Iter.     Column Row Layer    Maximum-Head-Change  Column Row Layer    Maximum-Flux-Residual          L2-NORM 
          0                 1           2             4    7     1       0.1131433677E-01       4    7    1         0.5921345611E+00      0.1648921891E+01
          0                 2           2             4    7     1      -0.1099981574E-02       4    7    1        -0.5918134048E-01      0.1648409299E+00
          0                 3           1             4    7     1       0.7484818312E-04       4    7    1         0.4139557833E-02      0.1153389924E-01

    ------------------------------------------------
       NWT REQUIRED            3 OUTER ITERATIONS 
       AND A TOTAL OF          5 INNER ITERATIONS.
    ------------------------------------------------

 NO OUTPUT CONTROL FOR STRESS PERIOD   28   TIME STEP    1
 
 SOLVING FOR HEAD 
                                                   Max.-Head-Change                         Max.-Flux-Residual
  Residual-Control   Outer-Iter.   Inner-Iter.     Column Row Layer    Maximum-Head-Change  Column Row Layer    Maximum-Flux-Residual          L2-NORM 
          0                 1           2             4    7     1       0.1123331057E-01       4    7    1         0.5878792932E+00      0.1639428605E+01
          0                 2           2             4    7     1      -0.1092104165E-02       4    7    1        -0.5875604225E-01      0.1638920221E+00
          0                 3           1             4    7     1       0.7431216466E-04       4    7    1         0.4109809413E-02      0.1146751283E-01

    ------------------------------------------------
       NWT REQUIRED            3 OUTER ITERATIONS 
       AND A TOTAL OF          5 INNER ITERATIONS.
    ------------------------------------------------

 NO OUTPUT CONTROL FOR STRESS PERIOD   28   TIME STEP    2
 
 SOLVING FOR HEAD 
                                                   Max.-Head-Change                         Max.-Flux-Residual
  Residual-Control   Outer-Iter.   Inner-Iter.     Column Row Layer    Maximum-Head-Change  Column Row Layer    Maximum-Flux-Residual          L2-NORM 
          0                 1           2             4    7     1       0.1115303406E-01       4    7    1         0.5836635059E+00      0.1630023250E+01
          0                 2           2             4    7     1      -0.1084299643E-02       4    7    1        -0.5833469001E-01      0.1629518391E+00
          0                 3           1             4    7     1       0.7378110581E-04       4    7    1         0.4080337028E-02      0.1140170864E-01

    ------------------------------------------------
       NWT REQUIRED            3 OUTER ITERATIONS 
       AND A TOTAL OF          5 INNER ITERATIONS.
    ------------------------------------------------

 NO OUTPUT CONTROL FOR STRESS PERIOD   28   TIME STEP    3
 
 SOLVING FOR HEAD 
                                                   Max.-Head-Change                         Max.-Flux-Residual
  Residual-Control   Outer-Iter.   Inner-Iter.     Column Row Layer    Maximum-Head-Change  Column Row Layer    Maximum-Flux-Residual          L2-NORM 
          0                 1           2             4    7     1       0.1107363639E-01       4    7    1         0.5794939318E+00      0.1620717643E+01
          0                 2           2             4    7     1      -0.1076580562E-02       4    7    1        -0.5791795664E-01      0.1620217213E+00
          0                 3           1             4    7     1       0.7325586085E-04       4    7    1         0.4051187705E-02      0.1133666973E-01

    ------------------------------------------------
       NWT REQUIRED            3 OUTER ITERATIONS 
       AND A TOTAL OF          5 INNER ITERATIONS.
    ------------------------------------------------

 NO OUTPUT CONTROL FOR STRESS PERIOD   28   TIME STEP    4
 
 SOLVING FOR HEAD 
                                                   Max.-Head-Change                         Max.-Flux-Residual
  Residual-Control   Outer-Iter.   Inner-Iter.     Column Row Layer    Maximum-Head-Change  Column Row Layer    Maximum-Flux-Residual          L2-NORM 
          0                 1           2             4    7     1       0.1099510130E-01       4    7    1         0.5753699239E+00      0.1611502758E+01
          0                 2           2             4    7     1      -0.1068945343E-02       4    7    1        -0.5750577746E-01      0.1611006052E+00
          0                 3           1             4    7     1       0.7273632231E-04       4    7    1         0.4022356943E-02      0.1127221562E-01

    ------------------------------------------------
       NWT REQUIRED            3 OUTER ITERATIONS 
       AND A TOTAL OF          5 INNER ITERATIONS.
    ------------------------------------------------

 NO OUTPUT CONTROL FOR STRESS PERIOD   28   TIME STEP    5
 
 SOLVING FOR HEAD 
                                                   Max.-Head-Change                         Max.-Flux-Residual
  Residual-Control   Outer-Iter.   Inner-Iter.     Column Row Layer    Maximum-Head-Change  Column Row Layer    Maximum-Flux-Residual          L2-NORM 
          0                 1           2             4    7     1       0.1091741573E-01       4    7    1         0.5712906398E+00      0.1602379543E+01
          0                 2           2             4    7     1      -0.1061392715E-02       4    7    1        -0.5709806831E-01      0.1601887082E+00
          0                 3           1             4    7     1       0.7222240428E-04       4    7    1         0.3993838855E-02      0.1120844103E-01

    ------------------------------------------------
       NWT REQUIRED            3 OUTER ITERATIONS 
       AND A TOTAL OF          5 INNER ITERATIONS.
    ------------------------------------------------

 NO OUTPUT CONTROL FOR STRESS PERIOD   28   TIME STEP    6
 
 SOLVING FOR HEAD 
                                                   Max.-Head-Change                         Max.-Flux-Residual
  Residual-Control   Outer-Iter.   Inner-Iter.     Column Row Layer    Maximum-Head-Change  Column Row Layer    Maximum-Flux-Residual          L2-NORM 
          0                 1           2             4    7     1       0.1084056664E-01       4    7    1         0.5672554016E+00      0.1593347807E+01
          0                 2           2             4    7     1      -0.1053921409E-02       4    7    1        -0.5669476139E-01      0.1592858852E+00
          0                 3           1             4    7     1       0.7171401909E-04       4    7    1         0.3965628690E-02      0.1114526982E-01

    ------------------------------------------------
       NWT REQUIRED            3 OUTER ITERATIONS 
       AND A TOTAL OF          5 INNER ITERATIONS.
    ------------------------------------------------

 NO OUTPUT CONTROL FOR STRESS PERIOD   28   TIME STEP    7
 
 SOLVING FOR HEAD 
                                                   Max.-Head-Change                         Max.-Flux-Residual
  Residual-Control   Outer-Iter.   Inner-Iter.     Column Row Layer    Maximum-Head-Change  Column Row Layer    Maximum-Flux-Residual          L2-NORM 
          0                 1           2             4    7     1       0.1076440433E-01       4    7    1         0.5632561894E+00      0.1584402259E+01
          0                 2           2             4    7     1      -0.1046516873E-02       4    7    1        -0.5629505516E-01      0.1583917194E+00
          0                 3           1             4    7     1       0.7121017755E-04       4    7    1         0.3937670379E-02      0.1108268321E-01

    ------------------------------------------------
       NWT REQUIRED            3 OUTER ITERATIONS 
       AND A TOTAL OF          5 INNER ITERATIONS.
    ------------------------------------------------

 NO OUTPUT CONTROL FOR STRESS PERIOD   28   TIME STEP    8
 
 SOLVING FOR HEAD 
                                                   Max.-Head-Change                         Max.-Flux-Residual
  Residual-Control   Outer-Iter.   Inner-Iter.     Column Row Layer    Maximum-Head-Change  Column Row Layer    Maximum-Flux-Residual          L2-NORM 
          0                 1           2             4    7     1       0.1068919050E-01       4    7    1         0.5593072736E+00      0.1575548227E+01
          0                 2           2             4    7     1      -0.1039204550E-02       4    7    1        -0.5590037591E-01      0.1575066808E+00
          0                 3           1             4    7     1       0.7071261046E-04       4    7    1         0.3910063678E-02      0.1102077982E-01

    ------------------------------------------------
       NWT REQUIRED            3 OUTER ITERATIONS 
       AND A TOTAL OF          5 INNER ITERATIONS.
    ------------------------------------------------

 NO OUTPUT CONTROL FOR STRESS PERIOD   28   TIME STEP    9
 
 SOLVING FOR HEAD 
                                                   Max.-Head-Change                         Max.-Flux-Residual
  Residual-Control   Outer-Iter.   Inner-Iter.     Column Row Layer    Maximum-Head-Change  Column Row Layer    Maximum-Flux-Residual          L2-NORM 
          0                 1           2             4    7     1       0.1061463523E-01       4    7    1         0.5553928467E+00      0.1566777645E+01
          0                 2           2             4    7     1      -0.1031956251E-02       4    7    1        -0.5550914372E-01      0.1566299919E+00
          0                 3           1             4    7     1       0.7021939981E-04       4    7    1         0.3882698104E-02      0.1095945973E-01

    ------------------------------------------------
       NWT REQUIRED            3 OUTER ITERATIONS 
       AND A TOTAL OF          5 INNER ITERATIONS.
    ------------------------------------------------

 NO OUTPUT CONTROL FOR STRESS PERIOD   28   TIME STEP   10
 
 SOLVING FOR HEAD 
                                                   Max.-Head-Change                         Max.-Flux-Residual
  Residual-Control   Outer-Iter.   Inner-Iter.     Column Row Layer    Maximum-Head-Change  Column Row Layer    Maximum-Flux-Residual          L2-NORM 
          0                 1           2             4    7     1       0.1054086744E-01       4    7    1         0.5515199086E+00      0.1558095305E+01
          0                 2           2             4    7     1      -0.1024784513E-02       4    7    1        -0.5512205821E-01      0.1557621334E+00
          0                 3           1             4    7     1       0.6973139893E-04       4    7    1         0.3855622568E-02      0.1089891528E-01

    ------------------------------------------------
       NWT REQUIRED            3 OUTER ITERATIONS 
       AND A TOTAL OF          5 INNER ITERATIONS.
    ------------------------------------------------

 NO OUTPUT CONTROL FOR STRESS PERIOD   28   TIME STEP   11
 
 SOLVING FOR HEAD 
                                                   Max.-Head-Change                         Max.-Flux-Residual
  Residual-Control   Outer-Iter.   Inner-Iter.     Column Row Layer    Maximum-Head-Change  Column Row Layer    Maximum-Flux-Residual          L2-NORM 
          0                 1           2             4    7     1       0.1046787938E-01       4    7    1         0.5476878005E+00      0.1549493314E+01
          0                 2           2             4    7     1      -0.1017688581E-02       4    7    1        -0.5473905350E-01      0.1549022971E+00
          0                 3           1             4    7     1       0.6924855611E-04       4    7    1         0.3828832484E-02      0.1083857185E-01

    ------------------------------------------------
       NWT REQUIRED            3 OUTER ITERATIONS 
       AND A TOTAL OF          5 INNER ITERATIONS.
    ------------------------------------------------

 NO OUTPUT CONTROL FOR STRESS PERIOD   28   TIME STEP   12
 
 SOLVING FOR HEAD 
                                                   Max.-Head-Change                         Max.-Flux-Residual
  Residual-Control   Outer-Iter.   Inner-Iter.     Column Row Layer    Maximum-Head-Change  Column Row Layer    Maximum-Flux-Residual          L2-NORM 
          0                 1           2             4    7     1       0.1039565257E-01       4    7    1         0.5438961205E+00      0.1540979978E+01
          0                 2           2             4    7     1      -0.1010666657E-02       4    7    1        -0.5436008946E-01      0.1540513219E+00
          0                 3           1             4    7     1       0.6877074946E-04       4    7    1         0.3802325043E-02      0.1077906198E-01

    ------------------------------------------------
       NWT REQUIRED            3 OUTER ITERATIONS 
       AND A TOTAL OF          5 INNER ITERATIONS.
    ------------------------------------------------

 NO OUTPUT CONTROL FOR STRESS PERIOD   28   TIME STEP   13
 
 SOLVING FOR HEAD 
                                                   Max.-Head-Change                         Max.-Flux-Residual
  Residual-Control   Outer-Iter.   Inner-Iter.     Column Row Layer    Maximum-Head-Change  Column Row Layer    Maximum-Flux-Residual          L2-NORM 
          0                 1           2             4    7     1       0.1032417823E-01       4    7    1         0.5401439092E+00      0.1532546531E+01
          0                 2           2             4    7     1      -0.1003717890E-02       4    7    1        -0.5398507021E-01      0.1532083384E+00
          0                 3           1             4    7     1       0.6829792052E-04       4    7    1         0.3776093508E-02      0.1072008274E-01

    ------------------------------------------------
       NWT REQUIRED            3 OUTER ITERATIONS 
       AND A TOTAL OF          5 INNER ITERATIONS.
    ------------------------------------------------

 NO OUTPUT CONTROL FOR STRESS PERIOD   28   TIME STEP   14
 
 SOLVING FOR HEAD 
                                                   Max.-Head-Change                         Max.-Flux-Residual
  Residual-Control   Outer-Iter.   Inner-Iter.     Column Row Layer    Maximum-Head-Change  Column Row Layer    Maximum-Flux-Residual          L2-NORM 
          0                 1           2             4    7     1       0.1025344390E-01       4    7    1         0.5364307127E+00      0.1524195956E+01
          0                 2           2             4    7     1      -0.9968410672E-03       4    7    1        -0.5361395036E-01      0.1523736352E+00
          0                 3           1             4    7     1       0.6782998716E-04       4    7    1         0.3750134724E-02      0.1066167943E-01

    ------------------------------------------------
       NWT REQUIRED            3 OUTER ITERATIONS 
       AND A TOTAL OF          5 INNER ITERATIONS.
    ------------------------------------------------

 NO OUTPUT CONTROL FOR STRESS PERIOD   28   TIME STEP   15
 
 SOLVING FOR HEAD 
                                                   Max.-Head-Change                         Max.-Flux-Residual
  Residual-Control   Outer-Iter.   Inner-Iter.     Column Row Layer    Maximum-Head-Change  Column Row Layer    Maximum-Flux-Residual          L2-NORM 
          0                 1           2             4    7     1       0.1018343918E-01       4    7    1         0.5327558846E+00      0.1515929161E+01
          0                 2           2             4    7     1      -0.9900351772E-03       4    7    1        -0.5324666530E-01      0.1515473073E+00
          0                 3           1             4    7     1       0.6736688053E-04       4    7    1         0.3724444196E-02      0.1060389410E-01

    ------------------------------------------------
       NWT REQUIRED            3 OUTER ITERATIONS 
       AND A TOTAL OF          5 INNER ITERATIONS.
    ------------------------------------------------

 NO OUTPUT CONTROL FOR STRESS PERIOD   28   TIME STEP   16
 
 SOLVING FOR HEAD 
                                                   Max.-Head-Change                         Max.-Flux-Residual
  Residual-Control   Outer-Iter.   Inner-Iter.     Column Row Layer    Maximum-Head-Change  Column Row Layer    Maximum-Flux-Residual          L2-NORM 
          0                 1           2             4    7     1       0.1011401702E-01       4    7    1         0.5291115396E+00      0.1507732256E+01
          0                 2           2             4    7     1      -0.9832859243E-03       4    7    1        -0.5288242694E-01      0.1507279663E+00
          0                 3           1             4    7     1       0.6690762740E-04       4    7    1         0.3698966755E-02      0.1054656234E-01

    ------------------------------------------------
       NWT REQUIRED            3 OUTER ITERATIONS 
       AND A TOTAL OF          5 INNER ITERATIONS.
    ------------------------------------------------

 NO OUTPUT CONTROL FOR STRESS PERIOD   28   TIME STEP   17
 
 SOLVING FOR HEAD 
                                                   Max.-Head-Change                         Max.-Flux-Residual
  Residual-Control   Outer-Iter.   Inner-Iter.     Column Row Layer    Maximum-Head-Change  Column Row Layer    Maximum-Flux-Residual          L2-NORM 
          0                 1           2             4    7     1       0.1004544195E-01       4    7    1         0.5255120903E+00      0.1499622129E+01
          0                 2           2             4    7     1      -0.9766190266E-03       4    7    1        -0.5252267575E-01      0.1499172065E+00
          0                 3           1             4    7     1       0.6645397858E-04       4    7    1         0.3673803200E-02      0.1049554808E-01

    ------------------------------------------------
       NWT REQUIRED            3 OUTER ITERATIONS 
       AND A TOTAL OF          5 INNER ITERATIONS.
    ------------------------------------------------

 NO OUTPUT CONTROL FOR STRESS PERIOD   28   TIME STEP   18
 
 SOLVING FOR HEAD 
                                                   Max.-Head-Change                         Max.-Flux-Residual
  Residual-Control   Outer-Iter.   Inner-Iter.     Column Row Layer    Maximum-Head-Change  Column Row Layer    Maximum-Flux-Residual          L2-NORM 
          0                 1           2             4    7     1       0.9977562248E-02       4    7    1         0.5219492162E+00      0.1491591559E+01
          0                 2           2             4    7     1      -0.9700197331E-03       4    7    1        -0.5216658015E-01      0.1491145844E+00
          0                 3           1             4    7     1       0.6600492927E-04       4    7    1         0.3648895312E-02      0.1043369442E-01

    ------------------------------------------------
       NWT REQUIRED            3 OUTER ITERATIONS 
       AND A TOTAL OF          5 INNER ITERATIONS.
    ------------------------------------------------

 NO OUTPUT CONTROL FOR STRESS PERIOD   28   TIME STEP   19
 
 SOLVING FOR HEAD 
                                                   Max.-Head-Change                         Max.-Flux-Residual
  Residual-Control   Outer-Iter.   Inner-Iter.     Column Row Layer    Maximum-Head-Change  Column Row Layer    Maximum-Flux-Residual          L2-NORM 
          0                 1           2             4    7     1       0.9910234844E-02       4    7    1         0.5184150494E+00      0.1483630957E+01
          0                 2           2             4    7     1      -0.9634741339E-03       4    7    1        -0.5181335372E-01      0.1483188445E+00
          0                 3           1             4    7     1       0.6555953396E-04       4    7    1         0.3624188129E-02      0.1037801793E-01

    ------------------------------------------------
       NWT REQUIRED            3 OUTER ITERATIONS 
       AND A TOTAL OF          5 INNER ITERATIONS.
    ------------------------------------------------

 NO OUTPUT CONTROL FOR STRESS PERIOD   28   TIME STEP   20
 
 SOLVING FOR HEAD 
                                                   Max.-Head-Change                         Max.-Flux-Residual
  Residual-Control   Outer-Iter.   Inner-Iter.     Column Row Layer    Maximum-Head-Change  Column Row Layer    Maximum-Flux-Residual          L2-NORM 
          0                 1           2             4    7     1       0.9843722977E-02       4    7    1         0.5149242104E+00      0.1475745946E+01
          0                 2           2             4    7     1      -0.9570078222E-03       4    7    1        -0.5146445779E-01      0.1475306879E+00
          0                 3           1             4    7     1       0.6511953362E-04       4    7    1         0.3599783851E-02      0.1032290309E-01

    ------------------------------------------------
       NWT REQUIRED            3 OUTER ITERATIONS 
       AND A TOTAL OF          5 INNER ITERATIONS.
    ------------------------------------------------

 NO OUTPUT CONTROL FOR STRESS PERIOD   28   TIME STEP   21
 
 SOLVING FOR HEAD 
                                                   Max.-Head-Change                         Max.-Flux-Residual
  Residual-Control   Outer-Iter.   Inner-Iter.     Column Row Layer    Maximum-Head-Change  Column Row Layer    Maximum-Flux-Residual          L2-NORM 
          0                 1           2             4    7     1       0.9777874185E-02       4    7    1         0.5114683096E+00      0.1467937073E+01
          0                 2           2             4    7     1      -0.9506059756E-03       4    7    1        -0.5111905382E-01      0.1467501297E+00
          0                 3           1             4    7     1       0.6468392025E-04       4    7    1         0.3575623847E-02      0.1026828454E-01

    ------------------------------------------------
       NWT REQUIRED            3 OUTER ITERATIONS 
       AND A TOTAL OF          5 INNER ITERATIONS.
    ------------------------------------------------

 NO OUTPUT CONTROL FOR STRESS PERIOD   28   TIME STEP   22
 
 SOLVING FOR HEAD 
                                                   Max.-Head-Change                         Max.-Flux-Residual
  Residual-Control   Outer-Iter.   Inner-Iter.     Column Row Layer    Maximum-Head-Change  Column Row Layer    Maximum-Flux-Residual          L2-NORM 
          0                 1           2             4    7     1       0.9712545626E-02       4    7    1         0.5080394417E+00      0.1460201564E+01
          0                 2           2             4    7     1      -0.9442547061E-03       4    7    1        -0.5077635168E-01      0.1459769158E+00
          0                 3           1             4    7     1       0.6425174835E-04       4    7    1         0.3551652831E-02      0.1021420042E-01

    ------------------------------------------------
       NWT REQUIRED            3 OUTER ITERATIONS 
       AND A TOTAL OF          5 INNER ITERATIONS.
    ------------------------------------------------

 NO OUTPUT CONTROL FOR STRESS PERIOD   28   TIME STEP   23
 
 SOLVING FOR HEAD 
                                                   Max.-Head-Change                         Max.-Flux-Residual
  Residual-Control   Outer-Iter.   Inner-Iter.     Column Row Layer    Maximum-Head-Change  Column Row Layer    Maximum-Flux-Residual          L2-NORM 
          0                 1           2             4    7     1       0.9648003576E-02       4    7    1         0.5046522398E+00      0.1452539161E+01
          0                 2           2             4    7     1      -0.9379799012E-03       4    7    1        -0.5043781393E-01      0.1452109416E+00
          0                 3           1             4    7     1       0.6382477888E-04       4    7    1         0.3527973062E-02      0.1016058109E-01

    ------------------------------------------------
       NWT REQUIRED            3 OUTER ITERATIONS 
       AND A TOTAL OF          5 INNER ITERATIONS.
    ------------------------------------------------

 NO OUTPUT CONTROL FOR STRESS PERIOD   28   TIME STEP   24
 
 SOLVING FOR HEAD 
                                                   Max.-Head-Change                         Max.-Flux-Residual
  Residual-Control   Outer-Iter.   Inner-Iter.     Column Row Layer    Maximum-Head-Change  Column Row Layer    Maximum-Flux-Residual          L2-NORM 
          0                 1           2             4    7     1       0.9584096375E-02       4    7    1         0.5012984706E+00      0.1444950386E+01
          0                 2           2             4    7     1      -0.9317668174E-03       4    7    1        -0.5010261767E-01      0.1444525166E+00
          0                 3           1             4    7     1       0.6340200965E-04       4    7    1         0.3504527050E-02      0.1010754641E-01

    ------------------------------------------------
       NWT REQUIRED            3 OUTER ITERATIONS 
       AND A TOTAL OF          5 INNER ITERATIONS.
    ------------------------------------------------

 NO OUTPUT CONTROL FOR STRESS PERIOD   28   TIME STEP   25
 
 SOLVING FOR HEAD 
                                                   Max.-Head-Change                         Max.-Flux-Residual
  Residual-Control   Outer-Iter.   Inner-Iter.     Column Row Layer    Maximum-Head-Change  Column Row Layer    Maximum-Flux-Residual          L2-NORM 
          0                 1           2             4    7     1       0.9520815673E-02       4    7    1         0.4979776173E+00      0.1437434079E+01
          0                 2           2             4    7     1      -0.9256146423E-03       4    7    1        -0.4977071126E-01      0.1437010976E+00
          0                 3           1             4    7     1       0.6298338516E-04       4    7    1         0.3481311157E-02      0.1005496443E-01

    ------------------------------------------------
       NWT REQUIRED            3 OUTER ITERATIONS 
       AND A TOTAL OF          5 INNER ITERATIONS.
    ------------------------------------------------

 NO OUTPUT CONTROL FOR STRESS PERIOD   28   TIME STEP   26
 
 SOLVING FOR HEAD 
                                                   Max.-Head-Change                         Max.-Flux-Residual
  Residual-Control   Outer-Iter.   Inner-Iter.     Column Row Layer    Maximum-Head-Change  Column Row Layer    Maximum-Flux-Residual          L2-NORM 
          0                 1           2             4    7     1       0.9458153658E-02       4    7    1         0.4946892469E+00      0.1429987841E+01
          0                 2           2             4    7     1      -0.9195226161E-03       4    7    1        -0.4944205140E-01      0.1429568052E+00
          0                 3           1             4    7     1       0.6256885275E-04       4    7    1         0.3458322321E-02      0.1000289664E-01

    ------------------------------------------------
       NWT REQUIRED            3 OUTER ITERATIONS 
       AND A TOTAL OF          5 INNER ITERATIONS.
    ------------------------------------------------

 NO OUTPUT CONTROL FOR STRESS PERIOD   28   TIME STEP   27
 
 SOLVING FOR HEAD 
                                                   Max.-Head-Change                         Max.-Flux-Residual
  Residual-Control   Outer-Iter.   Inner-Iter.     Column Row Layer    Maximum-Head-Change  Column Row Layer    Maximum-Flux-Residual          L2-NORM 
          0                 1           2             4    7     1       0.9395966692E-02       4    7    1         0.4914256072E+00      0.1422606842E+01
          0                 2           2             4    7     1      -0.9134767745E-03       4    7    1        -0.4911586327E-01      0.1422189904E+00
          0                 3           1             4    7     1       0.6215746360E-04       4    7    1         0.3435506404E-02      0.9951270273E-02

    ------------------------------------------------
       NWT REQUIRED            3 OUTER ITERATIONS 
       AND A TOTAL OF          5 INNER ITERATIONS.
    ------------------------------------------------

 NO OUTPUT CONTROL FOR STRESS PERIOD   28   TIME STEP   28
 
 SOLVING FOR HEAD 
                                                   Max.-Head-Change                         Max.-Flux-Residual
  Residual-Control   Outer-Iter.   Inner-Iter.     Column Row Layer    Maximum-Head-Change  Column Row Layer    Maximum-Flux-Residual          L2-NORM 
          0                 1           2             4    7     1       0.9334518325E-02       4    7    1         0.4882012923E+00      0.1415290995E+01
          0                 2           2             4    7     1      -0.9075027405E-03       4    7    1        -0.4879360554E-01      0.1414877266E+00
          0                 3           1             4    7     1       0.6175096069E-04       4    7    1         0.3412965414E-02      0.9900125306E-02

    ------------------------------------------------
       NWT REQUIRED            3 OUTER ITERATIONS 
       AND A TOTAL OF          5 INNER ITERATIONS.
    ------------------------------------------------

 NO OUTPUT CONTROL FOR STRESS PERIOD   28   TIME STEP   29
 
 SOLVING FOR HEAD 
                                                   Max.-Head-Change                         Max.-Flux-Residual
  Residual-Control   Outer-Iter.   Inner-Iter.     Column Row Layer    Maximum-Head-Change  Column Row Layer    Maximum-Flux-Residual          L2-NORM 
          0                 1           2             4    7     1       0.9273794246E-02       4    7    1         0.4850152728E+00      0.1408049553E+01
          0                 2           2             4    7     1      -0.9015991223E-03       4    7    1        -0.4847517532E-01      0.1407638862E+00
          0                 3           1             4    7     1       0.6134924911E-04       4    7    1         0.3390692128E-02      0.9849486592E-02

    ------------------------------------------------
       NWT REQUIRED            3 OUTER ITERATIONS 
       AND A TOTAL OF          5 INNER ITERATIONS.
    ------------------------------------------------

 NO OUTPUT CONTROL FOR STRESS PERIOD   28   TIME STEP   30



 STREAM LISTING     PERIOD     28   STEP       30

 LAYER ROW COL. STREAM  RCH.  FLOW INTO     FLOW TO   FLOW OUT OF   OVRLND.     DIRECT     STREAM       STREAM     STREAM     STREAM   STREAMBED  STREAMBED
                SEG.NO.  NO.  STRM. RCH.    AQUIFER    STRM. RCH.    RUNOFF     PRECIP       ET          HEAD       DEPTH      WIDTH   CONDCTNC.   GRADIENT

   1    1    1     1     1    1.9000E+01  2.1427E-01   1.8786E+01  0.000E+00  0.000E+00  0.000E+00  1.09413E+03  1.082E+00  1.166E+01  5.249E-02  1.361E+00
   1    2    2     1     2    1.8786E+01  3.3054E-01   1.8455E+01  0.000E+00  0.000E+00  0.000E+00  1.08914E+03  1.077E+00  1.158E+01  8.107E-02  1.359E+00
   1    3    3     1     3    1.8455E+01  2.8064E-01   1.8175E+01  0.000E+00  0.000E+00  0.000E+00  1.08349E+03  1.072E+00  1.149E+01  6.892E-02  1.357E+00
   1    3    4     1     4    1.8175E+01  2.5740E-01   1.7917E+01  0.000E+00  0.000E+00  0.000E+00  1.07848E+03  1.068E+00  1.140E+01  6.328E-02  1.356E+00
   1    4    5     2     1    1.5917E+01  3.0542E-01   1.5612E+01  0.000E+00  0.000E+00  0.000E+00  1.07285E+03  9.157E-01  1.200E+01  7.800E-02  1.305E+00
   1    5    6     2     2    1.5612E+01  2.3438E-01   1.5377E+01  0.000E+00  0.000E+00  0.000E+00  1.06742E+03  9.063E-01  1.200E+01  6.000E-02  1.302E+00
   1    6    6     2     3    1.5377E+01  2.3388E-01   1.5143E+01  0.000E+00  0.000E+00  0.000E+00  1.06269E+03  8.980E-01  1.200E+01  6.000E-02  1.299E+00
   1    7    6     2     4    1.5143E+01  2.3338E-01   1.4910E+01  0.000E+00  0.000E+00  0.000E+00  1.05797E+03  8.897E-01  1.200E+01  6.000E-02  1.297E+00
   1    8    6     2     5    1.4910E+01  2.3289E-01   1.4677E+01  0.000E+00  0.000E+00  0.000E+00  1.05324E+03  8.814E-01  1.200E+01  6.000E-02  1.294E+00
   1    3    5     3     1    2.0000E+00  2.8252E-01   1.7175E+00  0.000E+00  0.000E+00  0.000E+00  1.07555E+03  1.909E+00  9.636E+00  7.227E-02  1.955E+00
   1    3    6     3     2    1.7175E+00  2.4905E-01   1.4684E+00  0.000E+00  0.000E+00  0.000E+00  1.07264E+03  1.727E+00  8.909E+00  6.682E-02  1.864E+00
   1    3    7     3     3    1.4684E+00  1.9718E-01   1.2712E+00  0.000E+00  0.000E+00  0.000E+00  1.06987E+03  1.555E+00  8.218E+00  5.547E-02  1.777E+00
   1    4    8     3     4    1.2712E+00  2.2567E-01   1.0456E+00  0.000E+00  0.000E+00  0.000E+00  1.06682E+03  1.364E+00  7.455E+00  6.709E-02  1.682E+00
   1    5    8     3     5    1.0456E+00  1.5790E-01   8.8768E-01  0.000E+00  0.000E+00  0.000E+00  1.06362E+03  1.164E+00  6.655E+00  4.991E-02  1.582E+00
   1    6    8     3     6    8.8768E-01  5.5980E-02   8.3170E-01  0.000E+00  0.000E+00  0.000E+00  1.06158E+03  1.036E+00  6.145E+00  1.844E-02  1.518E+00
   1    5   10     4     1    1.0000E+01  9.0919E-02   9.9091E+00  0.000E+00  0.000E+00  0.000E+00  1.07836E+03  6.368E-01  1.000E+01  2.500E-02  1.212E+00
   1    5    9     4     2    9.9091E+00  1.8158E-01   9.7275E+00  0.000E+00  0.000E+00  0.000E+00  1.07154E+03  6.315E-01  1.000E+01  5.000E-02  1.211E+00
   1    6    8     4     3    9.7275E+00  1.2689E-01   9.6006E+00  0.000E+00  0.000E+00  0.000E+00  1.06381E+03  6.256E-01  1.000E+01  3.500E-02  1.209E+00
   1    6    8     5     1    1.0432E+01  2.2686E-01   1.0205E+01  0.000E+00  0.000E+00  0.000E+00  1.05868E+03  6.790E-01  1.542E+01  6.166E-02  1.226E+00
   1    7    7     5     2    1.0205E+01  2.7894E-01   9.9265E+00  0.000E+00  0.000E+00  0.000E+00  1.05417E+03  6.732E-01  1.519E+01  7.594E-02  1.224E+00
   1    8    7     5     3    9.9265E+00  1.9221E-01   9.7343E+00  0.000E+00  0.000E+00  0.000E+00  1.04992E+03  6.676E-01  1.497E+01  5.241E-02  1.223E+00
   1    8    6     5     4    9.7343E+00  1.3577E-01   9.5985E+00  0.000E+00  0.000E+00  0.000E+00  1.04691E+03  6.637E-01  1.482E+01  3.706E-02  1.221E+00
   1    9    6     6     1    2.4276E+01  2.5176E-01   2.4024E+01  0.000E+00  0.000E+00  0.000E+00  1.04392E+03  1.196E+00  1.200E+01  6.000E-02  1.399E+00
   1   10    7     6     2    2.4024E+01  2.5131E-01   2.3773E+01  0.000E+00  0.000E+00  0.000E+00  1.03937E+03  1.188E+00  1.200E+01  6.000E-02  1.396E+00
   1   11    7     6     3    2.3773E+01  2.5086E-01   2.3522E+01  0.000E+00  0.000E+00  0.000E+00  1.03482E+03  1.181E+00  1.200E+01  6.000E-02  1.394E+00
   1   12    7     6     4    2.3522E+01  2.5041E-01   2.3271E+01  0.000E+00  0.000E+00  0.000E+00  1.03026E+03  1.173E+00  1.200E+01  6.000E-02  1.391E+00
   1   13    7     6     5    2.3271E+01  5.1027E-03   2.3266E+01  0.000E+00  0.000E+00  0.000E+00  1.02708E+03  1.170E+00  1.200E+01  2.400E-02  7.087E-02
   1   14    9     7     1    1.5000E+02  1.3425E+00   1.4866E+02  0.000E+00  0.000E+00  0.000E+00  1.03987E+03  2.288E+00  5.529E+01  5.593E-01  8.001E-01
   1   13    8     7     2    1.4866E+02  1.8836E+00   1.4677E+02  0.000E+00  0.000E+00  0.000E+00  1.03478E+03  2.279E+00  5.526E+01  6.148E-01  1.021E+00
   1   13    7     7     3    1.4677E+02  1.5765E+00   1.4520E+02  0.000E+00  0.000E+00  0.000E+00  1.02969E+03  2.270E+00  5.521E+01  5.584E-01  9.411E-01
   1   13    6     8     1    1.6846E+02  1.0250E+00   1.6744E+02  0.000E+00  0.000E+00  0.000E+00  1.02481E+03  2.939E+00  4.261E+01  4.342E-01  7.868E-01
   1   13    5     8     2    1.6744E+02  2.7837E-01   1.6716E+02  0.000E+00  0.000E+00  0.000E+00  1.01856E+03  2.935E+00  4.255E+01  4.336E-01  2.140E-01
   1   13    4     8     3    1.6716E+02 -2.0805E+00   1.6924E+02  0.000E+00  0.000E+00  0.000E+00  1.01232E+03  2.940E+00  4.264E+01  4.345E+00 -1.596E-01
   1   13    3     8     4    1.6924E+02 -3.4822E+00   1.7272E+02  0.000E+00  0.000E+00  0.000E+00  1.00608E+03  2.959E+00  4.290E+01  4.372E+00 -2.655E-01
   1   13    2     8     5    1.7272E+02 -2.5426E+00   1.7527E+02  0.000E+00  0.000E+00  0.000E+00  9.99853E+02  2.978E+00  4.318E+01  4.400E+00 -1.926E-01
   1   13    1     8     6    1.7527E+02 -1.9759E+00   1.7724E+02  0.000E+00  0.000E+00  0.000E+00  9.94867E+02  2.992E+00  4.339E+01  2.653E+00 -2.483E-01





UNSATURATED ZONE PACKAGE VOLUMETRIC BUDGET FOR  TIME STEP    30 STRESS PERIOD   28
  ------------------------------------------------------------------------------



     CUMULATIVE VOLUMES      L**3       RATES FOR THIS TIME STEP      L**3/T
     ------------------                 ------------------------

           IN:                                      IN:
           ---                                      ---
        INFILTRATION =  1011935158.3658          INFILTRATION =           0.8475

          OUT:                                     OUT:
          ----                                     ----
              UZF ET =   866542748.4198                UZF ET =           0.7500
        UZF RECHARGE =   144037931.5316          UZF RECHARGE =           0.0001

            IN - OUT =     1354478.4144              IN - OUT =       9.7377E-02

          STORAGE:                                 STORAGE:
          --------                                 --------
      STORAGE CHANGE =     1354464.0906        STORAGE CHANGE =       9.7377E-02

 PERCENT DISCREPANCY IS DIFFERENCE BETWEEN IN-OUT MINUS CHANGE IN STORAGE
 DIVIDED BY THE AVERAGE OF IN AND OUT TIMES 100

 PERCENT DISCREPANCY =           0.00     PERCENT DISCREPANCY =           0.00






1
  VOLUMETRIC BUDGET FOR AGRICULTURAL FIELDS AT  END OF TIME STEP   30, STRESS PERIOD  28
  ------------------------------------------------------------------------------

     CUMULATIVE VOLUMES      L**3       RATES FOR THIS TIME STEP      L**3/T
     ------------------                 ------------------------

           IN:                                      IN:
           ---                                      ---
               AG WELLS  =   951679488.0000                 AG WELLS  =           0.0000
      DIVERSION SEGMENTS =           0.0000        DIVERSION SEGMENTS =           0.0000
           GW IRRIGATION =           0.0000             GW IRRIGATION =           0.0000
           SW IRRIGATION =           0.0000             SW IRRIGATION =           0.0000
        SYSTEM LOSSES GW =           0.0000          SYSTEM LOSSES GW =           0.0000
        SYSTEM LOSSES SW =           0.0000          SYSTEM LOSSES SW =           0.0000

                TOTAL IN =   951679488.0000                  TOTAL IN =           0.0000

          OUT:                                     OUT:
          ----                                     ----
               AG WELLS  =           0.0000                 AG WELLS  =           0.0000
      DIVERSION SEGMENTS =           0.0000        DIVERSION SEGMENTS =           0.0000
           GW IRRIGATION =   951679488.0000             GW IRRIGATION =           0.0000
           SW IRRIGATION =           0.0000             SW IRRIGATION =           0.0000
        SYSTEM LOSSES GW =           0.0000          SYSTEM LOSSES GW =           0.0000
        SYSTEM LOSSES SW =           0.0000          SYSTEM LOSSES SW =           0.0000

               TOTAL OUT =   951679488.0000                 TOTAL OUT =           0.0000

                IN - OUT =           0.0000                  IN - OUT =           0.0000

     PERCENT DISCREPANCY =           0.00         PERCENT DISCREPANCY =           0.00



1
  VOLUMETRIC BUDGET FOR ENTIRE MODEL AT END OF TIME STEP   30, STRESS PERIOD  28
  ------------------------------------------------------------------------------

     CUMULATIVE VOLUMES      L**3       RATES FOR THIS TIME STEP      L**3/T
     ------------------                 ------------------------

           IN:                                      IN:
           ---                                      ---
             STORAGE     =  1260606336.0000               STORAGE     =           4.1493
       CONSTANT HEAD     =           0.0000         CONSTANT HEAD     =           0.0000
     HEAD DEP BOUNDS     =    20301456.0000       HEAD DEP BOUNDS     =           0.2862
      STREAM LEAKAGE     =   878125248.0000        STREAM LEAKAGE     =          11.8398
        UZF RECHARGE     =   144037952.0000          UZF RECHARGE     =       1.2252E-04
               GW ET     =           0.0000                 GW ET     =           0.0000
     SURFACE LEAKAGE     =           0.0000       SURFACE LEAKAGE     =           0.0000
           AG WELLS      =           0.0000             AG WELLS      =           0.0000

                TOTAL IN =  2303070976.0000                  TOTAL IN =          16.2754

          OUT:                                     OUT:
          ----                                     ----
             STORAGE     =   577910976.0000               STORAGE     =           5.9054
       CONSTANT HEAD     =           0.0000         CONSTANT HEAD     =           0.0000
     HEAD DEP BOUNDS     =    20868794.0000       HEAD DEP BOUNDS     =           0.2893
      STREAM LEAKAGE     =   735083328.0000        STREAM LEAKAGE     =          10.0812
        UZF RECHARGE     =           0.0000          UZF RECHARGE     =           0.0000
               GW ET     =    17516984.0000                 GW ET     =           0.0000
     SURFACE LEAKAGE     =           0.0000       SURFACE LEAKAGE     =           0.0000
           AG WELLS      =   951679488.0000             AG WELLS      =           0.0000

               TOTAL OUT =  2303059456.0000                 TOTAL OUT =          16.2759

                IN - OUT =       11520.0000                  IN - OUT =      -4.9782E-04

     PERCENT DISCREPANCY =           0.00         PERCENT DISCREPANCY =          -0.00






         TIME SUMMARY AT END OF TIME STEP   30 IN STRESS PERIOD   28
                    SECONDS     MINUTES      HOURS       DAYS        YEARS
                    -----------------------------------------------------------
   TIME STEP LENGTH  87667.      1461.1      24.352      1.0147     2.77799E-03
 STRESS PERIOD TIME 2.63000E+06  43833.      730.56      30.440     8.33397E-02
         TOTAL TIME 7.10967E+07 1.18494E+06  19749.      822.88      2.2529    
1
1
                            STRESS PERIOD NO.   29, LENGTH =   2630000.    
                            -----------------------------------------------

                              NUMBER OF TIME STEPS =    30

                               MULTIPLIER FOR DELT =     1.000

                            INITIAL TIME STEP SIZE =   87666.66    

 REUSING NON-PARAMETER GHB CELLS FROM LAST STRESS PERIOD

      2 GHB CELLS

 REUSING STREAM SEGMENT DATA FROM LAST STRESS PERIOD



            AREAL INFILTRATION RATE
 READING ON UNIT   19 WITH FORMAT: (FREE)              

            1           2           3           4           5           6           7           8           9          10
 ........................................................................................................................
   1   1.0000E-10  2.0000E-10   0.000       0.000       0.000       0.000       0.000       0.000       0.000       0.000    
   2   2.0000E-10  1.0000E-10  2.0000E-10   0.000       0.000      8.0000E-10  8.0000E-10  5.0000E-10   0.000       0.000    
   3    0.000      5.0000E-10  1.0000E-10  1.0000E-10  8.0000E-10  8.0000E-10  5.0000E-10  5.0000E-10   0.000       0.000    
   4   8.0000E-10  5.0000E-10  1.0000E-10  1.0000E-10  1.0000E-10  1.0000E-10  1.0000E-10  1.0000E-10  2.0000E-10   0.000    
   5   8.0000E-10  5.0000E-10  1.0000E-10  1.0000E-10  1.0000E-10  1.0000E-10  1.0000E-10  1.0000E-10  1.0000E-10  1.0000E-10
   6   8.0000E-10  5.0000E-10  5.0000E-10  2.0000E-10  2.0000E-10  1.0000E-10  1.0000E-10  1.0000E-10  1.0000E-10  5.0000E-10
   7   8.0000E-10  5.0000E-10  5.0000E-10  2.0000E-10  2.0000E-10  1.0000E-10  1.0000E-10  2.0000E-10  2.0000E-10   0.000    
   8    0.000      5.0000E-10  5.0000E-10  2.0000E-10  2.0000E-10  1.0000E-10  1.0000E-10  2.0000E-10  5.0000E-10   0.000    
   9    0.000      5.0000E-10  5.0000E-10  2.0000E-10  2.0000E-10  1.0000E-10  1.0000E-10  2.0000E-10  5.0000E-10   0.000    
  10    0.000      5.0000E-10  5.0000E-10  2.0000E-10  2.0000E-10  1.0000E-10  1.0000E-10  2.0000E-10  5.0000E-10  8.0000E-10
  11    0.000      1.0000E-10  1.0000E-10  1.0000E-10  1.0000E-10  1.0000E-10  1.0000E-10  2.0000E-10  5.0000E-10   0.000    
  12   1.0000E-10  1.0000E-10  1.0000E-10  1.0000E-10  1.0000E-10  1.0000E-10  1.0000E-10  1.0000E-10  2.0000E-10   0.000    
  13   1.0000E-10  1.0000E-10  2.0000E-10  2.0000E-10  2.0000E-10  2.0000E-10  2.0000E-10  1.0000E-10  1.0000E-10   0.000    
  14    0.000      2.0000E-10  5.0000E-10  5.0000E-10  5.0000E-10  5.0000E-10  5.0000E-10  2.0000E-10  1.0000E-10   0.000    
  15    0.000       0.000      8.0000E-10  8.0000E-10  8.0000E-10  8.0000E-10   0.000       0.000       0.000       0.000    

                  ET RATE =  2.500000E-08

 USING ET EXTINCTION DEPTH FROM PREVIOUS STRESS PERIOD. CURRENT PERIOD IS:      29

 USING EXTINCTION WATER CONTENT FROM PREVIOUS STRESS PERIOD. CURRENT PERIOD IS:      29

 USING AIR ENTRY PRESSURE FROM PREVIOUS STRESS PERIOD. CURRENT PERIOD IS:      29

 USING ROOT PRESSURE HEAD FROM PREVIOUS STRESS PERIOD. CURRENT PERIOD IS:      29

 USING ROOT ACTIVITY FROM PREVIOUS STRESS PERIOD. CURRENT PERIOD IS:      29

 PROCESSING AG STRESS PERIOD DATA

 READING AG STRESS PERIOD DATA

 READING IRRIGATION WELL

 END PROCESSING AG STRESS PERIOD DATA OPTIONS
 
 SOLVING FOR HEAD 
                                                   Max.-Head-Change                         Max.-Flux-Residual
  Residual-Control   Outer-Iter.   Inner-Iter.     Column Row Layer    Maximum-Head-Change  Column Row Layer    Maximum-Flux-Residual          L2-NORM 
          0                 1           2             3    7     1       0.8322252499E-02       4    9    1         0.2758132778E+00      0.1106476052E+01
          0                 2           2             3    7     1      -0.8095283942E-03       4    9    1        -0.2758132343E-01      0.1106460910E+00
          0                 3           1             3    7     1       0.5512595277E-04       4    9    1         0.1930693510E-02      0.7745069397E-02

    ------------------------------------------------
       NWT REQUIRED            3 OUTER ITERATIONS 
       AND A TOTAL OF          5 INNER ITERATIONS.
    ------------------------------------------------

 NO OUTPUT CONTROL FOR STRESS PERIOD   29   TIME STEP    1
 
 SOLVING FOR HEAD 
                                                   Max.-Head-Change                         Max.-Flux-Residual
  Residual-Control   Outer-Iter.   Inner-Iter.     Column Row Layer    Maximum-Head-Change  Column Row Layer    Maximum-Flux-Residual          L2-NORM 
          0                 1           2             3    7     1       0.8171491189E-02       4    9    1         0.2668121141E+00      0.1076982997E+01
          0                 2           2             3    7     1      -0.7948634137E-03       4    9    1        -0.2668120743E-01      0.1076967380E+00
          0                 3           1             3    7     1       0.5412731712E-04       4    9    1         0.1867685351E-02      0.7538629757E-02

    ------------------------------------------------
       NWT REQUIRED            3 OUTER ITERATIONS 
       AND A TOTAL OF          5 INNER ITERATIONS.
    ------------------------------------------------

 NO OUTPUT CONTROL FOR STRESS PERIOD   29   TIME STEP    2
 
 SOLVING FOR HEAD 
                                                   Max.-Head-Change                         Max.-Flux-Residual
  Residual-Control   Outer-Iter.   Inner-Iter.     Column Row Layer    Maximum-Head-Change  Column Row Layer    Maximum-Flux-Residual          L2-NORM 
          0                 1           2             3    7     1       0.8023230705E-02       4    9    1         0.2581535529E+00      0.1049152491E+01
          0                 2           2             3    7     1      -0.7804416976E-03       4    9    1        -0.2581535167E-01      0.1049136316E+00
          0                 3           1             3    7     1       0.5314524789E-04       4    9    1         0.1807075428E-02      0.7343796590E-02

    ------------------------------------------------
       NWT REQUIRED            3 OUTER ITERATIONS 
       AND A TOTAL OF          5 INNER ITERATIONS.
    ------------------------------------------------

 NO OUTPUT CONTROL FOR STRESS PERIOD   29   TIME STEP    3
 
 SOLVING FOR HEAD 
                                                   Max.-Head-Change                         Max.-Flux-Residual
  Residual-Control   Outer-Iter.   Inner-Iter.     Column Row Layer    Maximum-Head-Change  Column Row Layer    Maximum-Flux-Residual          L2-NORM 
          0                 1           2             3    7     1       0.7877477164E-02       4    9    1         0.2498269888E+00      0.1022878962E+01
          0                 2           2             3    7     1      -0.7662638399E-03       4    9    1        -0.2498269558E-01      0.1022862652E+00
          0                 3           1             3    7     1       0.5217978424E-04       4    9    1         0.1748789484E-02      0.7159900219E-02

    ------------------------------------------------
       NWT REQUIRED            3 OUTER ITERATIONS 
       AND A TOTAL OF          5 INNER ITERATIONS.
    ------------------------------------------------

 NO OUTPUT CONTROL FOR STRESS PERIOD   29   TIME STEP    4
 
 SOLVING FOR HEAD 
                                                   Max.-Head-Change                         Max.-Flux-Residual
  Residual-Control   Outer-Iter.   Inner-Iter.     Column Row Layer    Maximum-Head-Change  Column Row Layer    Maximum-Flux-Residual          L2-NORM 
          0                 1           2             3    7     1       0.7733990703E-02       4    9    1         0.2418345491E+00      0.9980383908E+00
          0                 2           2             3    7     1      -0.7523065085E-03       4    9    1        -0.2418345191E-01      0.9980218240E-01
          0                 3           1             3    7     1       0.5122933799E-04       4    9    1         0.1692842395E-02      0.6986001207E-02

    ------------------------------------------------
       NWT REQUIRED            3 OUTER ITERATIONS 
       AND A TOTAL OF          5 INNER ITERATIONS.
    ------------------------------------------------

 NO OUTPUT CONTROL FOR STRESS PERIOD   29   TIME STEP    5
 
 SOLVING FOR HEAD 
                                                   Max.-Head-Change                         Max.-Flux-Residual
  Residual-Control   Outer-Iter.   Inner-Iter.     Column Row Layer    Maximum-Head-Change  Column Row Layer    Maximum-Flux-Residual          L2-NORM 
          0                 1           2             3    7     1       0.7593016175E-02       4    9    1         0.2341520948E+00      0.9745405056E+00
          0                 2           2             3    7     1      -0.7385935216E-03       4    9    1        -0.2341520677E-01      0.9745239507E-01
          0                 3           1             3    7     1       0.5029553093E-04       4    9    1         0.1639065211E-02      0.6821506376E-02

    ------------------------------------------------
       NWT REQUIRED            3 OUTER ITERATIONS 
       AND A TOTAL OF          5 INNER ITERATIONS.
    ------------------------------------------------

 NO OUTPUT CONTROL FOR STRESS PERIOD   29   TIME STEP    6
 
 SOLVING FOR HEAD 
                                                   Max.-Head-Change                         Max.-Flux-Residual
  Residual-Control   Outer-Iter.   Inner-Iter.     Column Row Layer    Maximum-Head-Change  Column Row Layer    Maximum-Flux-Residual          L2-NORM 
          0                 1           2             3    7     1       0.7454548967E-02       4    9    1         0.2267753468E+00      0.9522839129E+00
          0                 2           2             3    7     1      -0.7251244302E-03       4    9    1        -0.2267753221E-01      0.9522668718E-01
          0                 3           1             3    7     1       0.4937833314E-04       4    9    1         0.1587427963E-02      0.6665679877E-02

    ------------------------------------------------
       NWT REQUIRED            3 OUTER ITERATIONS 
       AND A TOTAL OF          5 INNER ITERATIONS.
    ------------------------------------------------

 NO OUTPUT CONTROL FOR STRESS PERIOD   29   TIME STEP    7
 
 SOLVING FOR HEAD 
                                                   Max.-Head-Change                         Max.-Flux-Residual
  Residual-Control   Outer-Iter.   Inner-Iter.     Column Row Layer    Maximum-Head-Change  Column Row Layer    Maximum-Flux-Residual          L2-NORM 
          0                 1           2             3    7     1       0.7318575215E-02       4    9    1         0.2196932865E+00      0.9311923407E+00
          0                 2           2             3    7     1      -0.7118978845E-03       4    9    1        -0.2196932645E-01      0.9311749173E-01
          0                 3           1             3    7     1       0.4847765194E-04       4    9    1         0.1537853538E-02      0.6518053178E-02

    ------------------------------------------------
       NWT REQUIRED            3 OUTER ITERATIONS 
       AND A TOTAL OF          5 INNER ITERATIONS.
    ------------------------------------------------

 NO OUTPUT CONTROL FOR STRESS PERIOD   29   TIME STEP    8
 
 SOLVING FOR HEAD 
                                                   Max.-Head-Change                         Max.-Flux-Residual
  Residual-Control   Outer-Iter.   Inner-Iter.     Column Row Layer    Maximum-Head-Change  Column Row Layer    Maximum-Flux-Residual          L2-NORM 
          0                 1           2             3    7     1       0.7185082381E-02       4    9    1         0.2128952295E+00      0.9111951596E+00
          0                 2           2             3    7     1      -0.6989126657E-03       4    9    1        -0.2128952099E-01      0.9111776269E-01
          0                 3           1             3    7     1       0.4759340438E-04       4    9    1         0.1490267136E-02      0.6378096213E-02

    ------------------------------------------------
       NWT REQUIRED            3 OUTER ITERATIONS 
       AND A TOTAL OF          5 INNER ITERATIONS.
    ------------------------------------------------

 NO OUTPUT CONTROL FOR STRESS PERIOD   29   TIME STEP    9
 
 SOLVING FOR HEAD 
                                                   Max.-Head-Change                         Max.-Flux-Residual
  Residual-Control   Outer-Iter.   Inner-Iter.     Column Row Layer    Maximum-Head-Change  Column Row Layer    Maximum-Flux-Residual          L2-NORM 
          0                 1           2             3    7     1       0.7054052462E-02       4    9    1         0.2063705757E+00      0.8922129223E+00
          0                 2           2             3    7     1      -0.6861670223E-03       4    9    1        -0.2063705583E-01      0.8921955086E-01
          0                 3           1             3    7     1       0.4672547083E-04       4    9    1         0.1444594554E-02      0.6245204636E-02

    ------------------------------------------------
       NWT REQUIRED            3 OUTER ITERATIONS 
       AND A TOTAL OF          5 INNER ITERATIONS.
    ------------------------------------------------

 NO OUTPUT CONTROL FOR STRESS PERIOD   29   TIME STEP   10
 
 SOLVING FOR HEAD 
                                                   Max.-Head-Change                         Max.-Flux-Residual
  Residual-Control   Outer-Iter.   Inner-Iter.     Column Row Layer    Maximum-Head-Change  Column Row Layer    Maximum-Flux-Residual          L2-NORM 
          0                 1           2             3    7     1       0.6925465085E-02       4    9    1         0.2001152476E+00      0.8741790605E+00
          0                 2           2             3    7     1      -0.6736589729E-03       4    9    1        -0.2001152327E-01      0.8741614403E-01
          0                 3           1             3    7     1       0.4587371710E-04       4    9    1         0.1400807233E-02      0.6119001322E-02

    ------------------------------------------------
       NWT REQUIRED            3 OUTER ITERATIONS 
       AND A TOTAL OF          5 INNER ITERATIONS.
    ------------------------------------------------

 NO OUTPUT CONTROL FOR STRESS PERIOD   29   TIME STEP   11
 
 SOLVING FOR HEAD 
                                                   Max.-Head-Change                         Max.-Flux-Residual
  Residual-Control   Outer-Iter.   Inner-Iter.     Column Row Layer    Maximum-Head-Change  Column Row Layer    Maximum-Flux-Residual          L2-NORM 
          0                 1           2             3    7     1       0.6799540680E-02       4    9    1         0.1941057999E+00      0.8570381195E+00
          0                 2           2             3    7     1      -0.6614099583E-03       4    9    1        -0.1941057870E-01      0.8570204239E-01
          0                 3           1             3    7     1       0.4503960286E-04       4    9    1         0.1358741107E-02      0.5999002350E-02

    ------------------------------------------------
       NWT REQUIRED            3 OUTER ITERATIONS 
       AND A TOTAL OF          5 INNER ITERATIONS.
    ------------------------------------------------

 NO OUTPUT CONTROL FOR STRESS PERIOD   29   TIME STEP   12
 
 SOLVING FOR HEAD 
                                                   Max.-Head-Change                         Max.-Flux-Residual
  Residual-Control   Outer-Iter.   Inner-Iter.     Column Row Layer    Maximum-Head-Change  Column Row Layer    Maximum-Flux-Residual          L2-NORM 
          0                 1           2             3    7     1       0.6675760376E-02       4    9    1         0.1883455339E+00      0.8407334517E+00
          0                 2           2             3    7     1      -0.6493695069E-03       4    9    1        -0.1883455230E-01      0.8407155470E-01
          0                 3           1             3    7     1       0.4421969091E-04       4    9    1         0.1318419231E-02      0.5884859102E-02

    ------------------------------------------------
       NWT REQUIRED            3 OUTER ITERATIONS 
       AND A TOTAL OF          5 INNER ITERATIONS.
    ------------------------------------------------

 NO OUTPUT CONTROL FOR STRESS PERIOD   29   TIME STEP   13
 
 SOLVING FOR HEAD 
                                                   Max.-Head-Change                         Max.-Flux-Residual
  Residual-Control   Outer-Iter.   Inner-Iter.     Column Row Layer    Maximum-Head-Change  Column Row Layer    Maximum-Flux-Residual          L2-NORM 
          0                 1           2             3    7     1       0.6554342760E-02       4    9    1         0.1828242079E+00      0.8252063767E+00
          0                 2           2             3    7     1      -0.6375588815E-03       4    9    1        -0.1828241991E-01      0.8251880573E-01
          0                 3           1             3    7     1       0.4341542946E-04       4    9    1         0.1279769947E-02      0.5776143807E-02

    ------------------------------------------------
       NWT REQUIRED            3 OUTER ITERATIONS 
       AND A TOTAL OF          5 INNER ITERATIONS.
    ------------------------------------------------

 NO OUTPUT CONTROL FOR STRESS PERIOD   29   TIME STEP   14
 
 SOLVING FOR HEAD 
                                                   Max.-Head-Change                         Max.-Flux-Residual
  Residual-Control   Outer-Iter.   Inner-Iter.     Column Row Layer    Maximum-Head-Change  Column Row Layer    Maximum-Flux-Residual          L2-NORM 
          0                 1           2             3    7     1       0.6435506030E-02       4    9    1         0.1775257693E+00      0.8104075255E+00
          0                 2           2             3    7     1      -0.6259993067E-03       4    9    1        -0.1775257623E-01      0.8103892271E-01
          0                 3           1             3    7     1       0.4262826386E-04       4    9    1         0.1242680867E-02      0.5672569450E-02

    ------------------------------------------------
       NWT REQUIRED            3 OUTER ITERATIONS 
       AND A TOTAL OF          5 INNER ITERATIONS.
    ------------------------------------------------

 NO OUTPUT CONTROL FOR STRESS PERIOD   29   TIME STEP   15
 
 SOLVING FOR HEAD 
                                                   Max.-Head-Change                         Max.-Flux-Residual
  Residual-Control   Outer-Iter.   Inner-Iter.     Column Row Layer    Maximum-Head-Change  Column Row Layer    Maximum-Flux-Residual          L2-NORM 
          0                 1           2             3    7     1       0.6318966250E-02       4    9    1         0.1724409317E+00      0.7963005130E+00
          0                 2           2             3    7     1      -0.6146631622E-03       4    9    1        -0.1724409265E-01      0.7962813968E-01
          0                 3           1             3    7     1       0.4185631316E-04       4    9    1         0.1207087011E-02      0.5573787456E-02

    ------------------------------------------------
       NWT REQUIRED            3 OUTER ITERATIONS 
       AND A TOTAL OF          5 INNER ITERATIONS.
    ------------------------------------------------

 NO OUTPUT CONTROL FOR STRESS PERIOD   29   TIME STEP   16
 
 SOLVING FOR HEAD 
                                                   Max.-Head-Change                         Max.-Flux-Residual
  Residual-Control   Outer-Iter.   Inner-Iter.     Column Row Layer    Maximum-Head-Change  Column Row Layer    Maximum-Flux-Residual          L2-NORM 
          0                 1           2             3    7     1       0.6204690400E-02       4    9    1         0.1675672658E+00      0.7828475231E+00
          0                 2           2             3    7     1      -0.6035472373E-03       4    9    1        -0.1675672622E-01      0.7828290550E-01
          0                 3           1             3    7     1       0.4109935890E-04       4    9    1         0.1172971357E-02      0.5479635581E-02

    ------------------------------------------------
       NWT REQUIRED            3 OUTER ITERATIONS 
       AND A TOTAL OF          5 INNER ITERATIONS.
    ------------------------------------------------

 NO OUTPUT CONTROL FOR STRESS PERIOD   29   TIME STEP   17
 
 SOLVING FOR HEAD 
                                                   Max.-Head-Change                         Max.-Flux-Residual
  Residual-Control   Outer-Iter.   Inner-Iter.     Column Row Layer    Maximum-Head-Change  Column Row Layer    Maximum-Flux-Residual          L2-NORM 
          0                 1           2             3    7     1       0.6092889817E-02       4    9    1         0.1628958301E+00      0.7699944972E+00
          0                 2           2             3    7     1      -0.5926720886E-03       4    9    1        -0.1628958281E-01      0.7699758501E-01
          0                 3           1             3    7     1       0.4035880019E-04       4    9    1         0.1140271298E-02      0.5389651754E-02

    ------------------------------------------------
       NWT REQUIRED            3 OUTER ITERATIONS 
       AND A TOTAL OF          5 INNER ITERATIONS.
    ------------------------------------------------

 NO OUTPUT CONTROL FOR STRESS PERIOD   29   TIME STEP   18
 
 SOLVING FOR HEAD 
                                                   Max.-Head-Change                         Max.-Flux-Residual
  Residual-Control   Outer-Iter.   Inner-Iter.     Column Row Layer    Maximum-Head-Change  Column Row Layer    Maximum-Flux-Residual          L2-NORM 
          0                 1           2             3    7     1       0.5983033348E-02       3    7    1         0.1585378678E+00      0.7577133913E+00
          0                 2           2             3    7     1      -0.5819860492E-03       3    7    1        -0.1585378864E-01      0.7576949521E-01
          0                 3           1             3    7     1       0.3963111946E-04       3    7    1         0.1109765665E-02      0.5303717540E-02

    ------------------------------------------------
       NWT REQUIRED            3 OUTER ITERATIONS 
       AND A TOTAL OF          5 INNER ITERATIONS.
    ------------------------------------------------

 NO OUTPUT CONTROL FOR STRESS PERIOD   29   TIME STEP   19
 
 SOLVING FOR HEAD 
                                                   Max.-Head-Change                         Max.-Flux-Residual
  Residual-Control   Outer-Iter.   Inner-Iter.     Column Row Layer    Maximum-Head-Change  Column Row Layer    Maximum-Flux-Residual          L2-NORM 
          0                 1           2             3    7     1       0.5875579616E-02       3    7    1         0.1556834298E+00      0.7459761572E+00
          0                 2           2             3    7     1      -0.5715337311E-03       3    7    1        -0.1556834483E-01      0.7459568224E-01
          0                 3           1             3    7     1       0.3891935406E-04       3    7    1         0.1089784591E-02      0.5221534523E-02

    ------------------------------------------------
       NWT REQUIRED            3 OUTER ITERATIONS 
       AND A TOTAL OF          5 INNER ITERATIONS.
    ------------------------------------------------

 NO OUTPUT CONTROL FOR STRESS PERIOD   29   TIME STEP   20
 
 SOLVING FOR HEAD 
                                                   Max.-Head-Change                         Max.-Flux-Residual
  Residual-Control   Outer-Iter.   Inner-Iter.     Column Row Layer    Maximum-Head-Change  Column Row Layer    Maximum-Flux-Residual          L2-NORM 
          0                 1           2             3    7     1       0.5770483250E-02       9    5    1        -0.1549196259E+00      0.7347549555E+00
          0                 2           2             3    7     1      -0.5613107208E-03       9    5    1         0.1549194947E-01      0.7347360058E-01
          0                 3           1             3    7     1       0.3822320436E-04       9    5    1        -0.1084437055E-02      0.5142966563E-02

    ------------------------------------------------
       NWT REQUIRED            3 OUTER ITERATIONS 
       AND A TOTAL OF          5 INNER ITERATIONS.
    ------------------------------------------------

 NO OUTPUT CONTROL FOR STRESS PERIOD   29   TIME STEP   21
 
 SOLVING FOR HEAD 
                                                   Max.-Head-Change                         Max.-Flux-Residual
  Residual-Control   Outer-Iter.   Inner-Iter.     Column Row Layer    Maximum-Head-Change  Column Row Layer    Maximum-Flux-Residual          L2-NORM 
          0                 1           2             3    7     1       0.5667459041E-02       9    5    1        -0.1544221830E+00      0.7240085331E+00
          0                 2           2             3    7     1      -0.5512892748E-03       9    5    1         0.1544220524E-01      0.7239893604E-01
          0                 3           1             3    7     1       0.3754078042E-04       9    5    1        -0.1080954970E-02      0.5067748499E-02

    ------------------------------------------------
       NWT REQUIRED            3 OUTER ITERATIONS 
       AND A TOTAL OF          5 INNER ITERATIONS.
    ------------------------------------------------

 NO OUTPUT CONTROL FOR STRESS PERIOD   29   TIME STEP   22
 
 SOLVING FOR HEAD 
                                                   Max.-Head-Change                         Max.-Flux-Residual
  Residual-Control   Outer-Iter.   Inner-Iter.     Column Row Layer    Maximum-Head-Change  Column Row Layer    Maximum-Flux-Residual          L2-NORM 
          0                 1           2             3    7     1       0.5566467812E-02       9    5    1        -0.1539248782E+00      0.7137123012E+00
          0                 2           2             3    7     1      -0.5414655824E-03       9    5    1         0.1539247481E-01      0.7136937229E-01
          0                 3           1             3    7     1       0.3687182235E-04       9    5    1        -0.1077473830E-02      0.4995691225E-02

    ------------------------------------------------
       NWT REQUIRED            3 OUTER ITERATIONS 
       AND A TOTAL OF          5 INNER ITERATIONS.
    ------------------------------------------------

 NO OUTPUT CONTROL FOR STRESS PERIOD   29   TIME STEP   23
 
 SOLVING FOR HEAD 
                                                   Max.-Head-Change                         Max.-Flux-Residual
  Residual-Control   Outer-Iter.   Inner-Iter.     Column Row Layer    Maximum-Head-Change  Column Row Layer    Maximum-Flux-Residual          L2-NORM 
          0                 1           2             3    7     1       0.5467713809E-02       9    5    1        -0.1534277880E+00      0.7038448297E+00
          0                 2           2             3    7     1      -0.5263299346E-03       9    5    1         0.1534276587E-01      0.7032428857E-01
          0                 3           1             3    7     1       0.3584112895E-04       9    5    1        -0.1073994184E-02      0.4922505622E-02

    ------------------------------------------------
       NWT REQUIRED            3 OUTER ITERATIONS 
       AND A TOTAL OF          5 INNER ITERATIONS.
    ------------------------------------------------

 NO OUTPUT CONTROL FOR STRESS PERIOD   29   TIME STEP   24
 
 SOLVING FOR HEAD 
                                                   Max.-Head-Change                         Max.-Flux-Residual
  Residual-Control   Outer-Iter.   Inner-Iter.     Column Row Layer    Maximum-Head-Change  Column Row Layer    Maximum-Flux-Residual          L2-NORM 
          0                 1           2             3    7     1       0.5384679149E-02       9    5    1        -0.1529309581E+00      0.6944367373E+00
          0                 2           2             3    7     1      -0.5237834997E-03       9    5    1         0.1529308291E-01      0.6944181507E-01
          0                 3           1             3    7     1       0.3566772578E-04       9    5    1        -0.1070516394E-02      0.4860758193E-02

    ------------------------------------------------
       NWT REQUIRED            3 OUTER ITERATIONS 
       AND A TOTAL OF          5 INNER ITERATIONS.
    ------------------------------------------------

 NO OUTPUT CONTROL FOR STRESS PERIOD   29   TIME STEP   25
 
 SOLVING FOR HEAD 
                                                   Max.-Head-Change                         Max.-Flux-Residual
  Residual-Control   Outer-Iter.   Inner-Iter.     Column Row Layer    Maximum-Head-Change  Column Row Layer    Maximum-Flux-Residual          L2-NORM 
          0                 1           2             3    7     1       0.5297464508E-02       9    5    1        -0.1524344204E+00      0.6854279377E+00
          0                 2           2             3    7     1      -0.5152998568E-03       9    5    1         0.1524342919E-01      0.6854093585E-01
          0                 3           1             3    7     1       0.3509002088E-04       9    5    1        -0.1067040621E-02      0.4797685314E-02

    ------------------------------------------------
       NWT REQUIRED            3 OUTER ITERATIONS 
       AND A TOTAL OF          5 INNER ITERATIONS.
    ------------------------------------------------

 NO OUTPUT CONTROL FOR STRESS PERIOD   29   TIME STEP   26
 
 SOLVING FOR HEAD 
                                                   Max.-Head-Change                         Max.-Flux-Residual
  Residual-Control   Outer-Iter.   Inner-Iter.     Column Row Layer    Maximum-Head-Change  Column Row Layer    Maximum-Flux-Residual          L2-NORM 
          0                 1           2             3    7     1       0.5211976412E-02       9    5    1        -0.1519382808E+00      0.6767751938E+00
          0                 2           2             3    7     1      -0.5069841607E-03       9    5    1         0.1519381530E-01      0.6767603456E-01
          0                 3           1             3    7     1       0.3452375250E-04       9    5    1        -0.1063567664E-02      0.4737593534E-02

    ------------------------------------------------
       NWT REQUIRED            3 OUTER ITERATIONS 
       AND A TOTAL OF          5 INNER ITERATIONS.
    ------------------------------------------------

 NO OUTPUT CONTROL FOR STRESS PERIOD   29   TIME STEP   27
 
 SOLVING FOR HEAD 
                                                   Max.-Head-Change                         Max.-Flux-Residual
  Residual-Control   Outer-Iter.   Inner-Iter.     Column Row Layer    Maximum-Head-Change  Column Row Layer    Maximum-Flux-Residual          L2-NORM 
          0                 1           2             3    7     1       0.5128186369E-02       9    5    1        -0.1514363571E+00      0.6684666414E+00
          0                 2           2             3    7     1      -0.4988336403E-03       9    5    1         0.1514362302E-01      0.6684480436E-01
          0                 3           1             3    7     1       0.3396873214E-04       9    5    1        -0.1060054174E-02      0.4679023186E-02

    ------------------------------------------------
       NWT REQUIRED            3 OUTER ITERATIONS 
       AND A TOTAL OF          5 INNER ITERATIONS.
    ------------------------------------------------

 NO OUTPUT CONTROL FOR STRESS PERIOD   29   TIME STEP   28
 
 SOLVING FOR HEAD 
                                                   Max.-Head-Change                         Max.-Flux-Residual
  Residual-Control   Outer-Iter.   Inner-Iter.     Column Row Layer    Maximum-Head-Change  Column Row Layer    Maximum-Flux-Residual          L2-NORM 
          0                 1           2             3    7     1       0.5045818688E-02       9    5    1        -0.1509412100E+00      0.6604756299E+00
          0                 2           2             3    7     1      -0.4908214780E-03       9    5    1         0.1509410835E-01      0.6604573045E-01
          0                 3           1             3    7     1       0.3342313339E-04       9    5    1        -0.1056588170E-02      0.4623036525E-02

    ------------------------------------------------
       NWT REQUIRED            3 OUTER ITERATIONS 
       AND A TOTAL OF          5 INNER ITERATIONS.
    ------------------------------------------------

 NO OUTPUT CONTROL FOR STRESS PERIOD   29   TIME STEP   29
 
 SOLVING FOR HEAD 
                                                   Max.-Head-Change                         Max.-Flux-Residual
  Residual-Control   Outer-Iter.   Inner-Iter.     Column Row Layer    Maximum-Head-Change  Column Row Layer    Maximum-Flux-Residual          L2-NORM 
          0                 1           2             3    7     1       0.4965091565E-02       9    5    1        -0.1504466064E+00      0.6527898322E+00
          0                 2           2             3    7     1      -0.4829688978E-03       9    5    1         0.1504464805E-01      0.6527713288E-01
          0                 3           1             3    7     1       0.3288840126E-04       9    5    1        -0.1053125950E-02      0.4569220080E-02

    ------------------------------------------------
       NWT REQUIRED            3 OUTER ITERATIONS 
       AND A TOTAL OF          5 INNER ITERATIONS.
    ------------------------------------------------

 NO OUTPUT CONTROL FOR STRESS PERIOD   29   TIME STEP   30



 STREAM LISTING     PERIOD     29   STEP       30

 LAYER ROW COL. STREAM  RCH.  FLOW INTO     FLOW TO   FLOW OUT OF   OVRLND.     DIRECT     STREAM       STREAM     STREAM     STREAM   STREAMBED  STREAMBED
                SEG.NO.  NO.  STRM. RCH.    AQUIFER    STRM. RCH.    RUNOFF     PRECIP       ET          HEAD       DEPTH      WIDTH   CONDCTNC.   GRADIENT

   1    1    1     1     1    1.9000E+01  2.1427E-01   1.8786E+01  0.000E+00  0.000E+00  0.000E+00  1.09413E+03  1.082E+00  1.166E+01  5.249E-02  1.361E+00
   1    2    2     1     2    1.8786E+01  3.3054E-01   1.8455E+01  0.000E+00  0.000E+00  0.000E+00  1.08914E+03  1.077E+00  1.158E+01  8.107E-02  1.359E+00
   1    3    3     1     3    1.8455E+01  2.8064E-01   1.8175E+01  0.000E+00  0.000E+00  0.000E+00  1.08349E+03  1.072E+00  1.149E+01  6.892E-02  1.357E+00
   1    3    4     1     4    1.8175E+01  2.5740E-01   1.7917E+01  0.000E+00  0.000E+00  0.000E+00  1.07848E+03  1.068E+00  1.140E+01  6.328E-02  1.356E+00
   1    4    5     2     1    1.5917E+01  3.0542E-01   1.5612E+01  0.000E+00  0.000E+00  0.000E+00  1.07285E+03  9.157E-01  1.200E+01  7.800E-02  1.305E+00
   1    5    6     2     2    1.5612E+01  2.3438E-01   1.5377E+01  0.000E+00  0.000E+00  0.000E+00  1.06742E+03  9.063E-01  1.200E+01  6.000E-02  1.302E+00
   1    6    6     2     3    1.5377E+01  2.3388E-01   1.5143E+01  0.000E+00  0.000E+00  0.000E+00  1.06269E+03  8.980E-01  1.200E+01  6.000E-02  1.299E+00
   1    7    6     2     4    1.5143E+01  2.3338E-01   1.4910E+01  0.000E+00  0.000E+00  0.000E+00  1.05797E+03  8.897E-01  1.200E+01  6.000E-02  1.297E+00
   1    8    6     2     5    1.4910E+01  2.3289E-01   1.4677E+01  0.000E+00  0.000E+00  0.000E+00  1.05324E+03  8.814E-01  1.200E+01  6.000E-02  1.294E+00
   1    3    5     3     1    2.0000E+00  2.8252E-01   1.7175E+00  0.000E+00  0.000E+00  0.000E+00  1.07555E+03  1.909E+00  9.636E+00  7.227E-02  1.955E+00
   1    3    6     3     2    1.7175E+00  2.4905E-01   1.4684E+00  0.000E+00  0.000E+00  0.000E+00  1.07264E+03  1.727E+00  8.909E+00  6.682E-02  1.864E+00
   1    3    7     3     3    1.4684E+00  1.9718E-01   1.2712E+00  0.000E+00  0.000E+00  0.000E+00  1.06987E+03  1.555E+00  8.218E+00  5.547E-02  1.777E+00
   1    4    8     3     4    1.2712E+00  2.2567E-01   1.0456E+00  0.000E+00  0.000E+00  0.000E+00  1.06682E+03  1.364E+00  7.455E+00  6.709E-02  1.682E+00
   1    5    8     3     5    1.0456E+00  1.5790E-01   8.8768E-01  0.000E+00  0.000E+00  0.000E+00  1.06362E+03  1.164E+00  6.655E+00  4.991E-02  1.582E+00
   1    6    8     3     6    8.8768E-01  5.5980E-02   8.3170E-01  0.000E+00  0.000E+00  0.000E+00  1.06158E+03  1.036E+00  6.145E+00  1.844E-02  1.518E+00
   1    5   10     4     1    1.0000E+01  9.0919E-02   9.9091E+00  0.000E+00  0.000E+00  0.000E+00  1.07836E+03  6.368E-01  1.000E+01  2.500E-02  1.212E+00
   1    5    9     4     2    9.9091E+00  1.8158E-01   9.7275E+00  0.000E+00  0.000E+00  0.000E+00  1.07154E+03  6.315E-01  1.000E+01  5.000E-02  1.211E+00
   1    6    8     4     3    9.7275E+00  1.2689E-01   9.6006E+00  0.000E+00  0.000E+00  0.000E+00  1.06381E+03  6.256E-01  1.000E+01  3.500E-02  1.209E+00
   1    6    8     5     1    1.0432E+01  2.2686E-01   1.0205E+01  0.000E+00  0.000E+00  0.000E+00  1.05868E+03  6.790E-01  1.542E+01  6.166E-02  1.226E+00
   1    7    7     5     2    1.0205E+01  2.7894E-01   9.9265E+00  0.000E+00  0.000E+00  0.000E+00  1.05417E+03  6.732E-01  1.519E+01  7.594E-02  1.224E+00
   1    8    7     5     3    9.9265E+00  1.9221E-01   9.7343E+00  0.000E+00  0.000E+00  0.000E+00  1.04992E+03  6.676E-01  1.497E+01  5.241E-02  1.223E+00
   1    8    6     5     4    9.7343E+00  1.3577E-01   9.5985E+00  0.000E+00  0.000E+00  0.000E+00  1.04691E+03  6.637E-01  1.482E+01  3.706E-02  1.221E+00
   1    9    6     6     1    2.4276E+01  2.5176E-01   2.4024E+01  0.000E+00  0.000E+00  0.000E+00  1.04392E+03  1.196E+00  1.200E+01  6.000E-02  1.399E+00
   1   10    7     6     2    2.4024E+01  2.5131E-01   2.3773E+01  0.000E+00  0.000E+00  0.000E+00  1.03937E+03  1.188E+00  1.200E+01  6.000E-02  1.396E+00
   1   11    7     6     3    2.3773E+01  2.5086E-01   2.3522E+01  0.000E+00  0.000E+00  0.000E+00  1.03482E+03  1.181E+00  1.200E+01  6.000E-02  1.394E+00
   1   12    7     6     4    2.3522E+01  2.5041E-01   2.3271E+01  0.000E+00  0.000E+00  0.000E+00  1.03026E+03  1.173E+00  1.200E+01  6.000E-02  1.391E+00
   1   13    7     6     5    2.3271E+01  5.6495E-03   2.3266E+01  0.000E+00  0.000E+00  0.000E+00  1.02708E+03  1.170E+00  1.200E+01  2.400E-02  7.847E-02
   1   14    9     7     1    1.5000E+02  1.3443E+00   1.4866E+02  0.000E+00  0.000E+00  0.000E+00  1.03987E+03  2.288E+00  5.529E+01  5.593E-01  8.012E-01
   1   13    8     7     2    1.4866E+02  1.8915E+00   1.4676E+02  0.000E+00  0.000E+00  0.000E+00  1.03478E+03  2.279E+00  5.526E+01  6.148E-01  1.026E+00
   1   13    7     7     3    1.4676E+02  1.5892E+00   1.4518E+02  0.000E+00  0.000E+00  0.000E+00  1.02969E+03  2.270E+00  5.521E+01  5.584E-01  9.486E-01
   1   13    6     8     1    1.6844E+02  1.0355E+00   1.6741E+02  0.000E+00  0.000E+00  0.000E+00  1.02481E+03  2.939E+00  4.261E+01  4.342E-01  7.949E-01
   1   13    5     8     2    1.6741E+02  2.8597E-01   1.6712E+02  0.000E+00  0.000E+00  0.000E+00  1.01856E+03  2.934E+00  4.255E+01  4.336E-01  2.199E-01
   1   13    4     8     3    1.6712E+02 -2.0599E+00   1.6918E+02  0.000E+00  0.000E+00  0.000E+00  1.01232E+03  2.940E+00  4.263E+01  4.344E+00 -1.581E-01
   1   13    3     8     4    1.6918E+02 -3.4689E+00   1.7265E+02  0.000E+00  0.000E+00  0.000E+00  1.00608E+03  2.958E+00  4.289E+01  4.371E+00 -2.645E-01
   1   13    2     8     5    1.7265E+02 -2.5379E+00   1.7519E+02  0.000E+00  0.000E+00  0.000E+00  9.99853E+02  2.978E+00  4.317E+01  4.400E+00 -1.923E-01
   1   13    1     8     6    1.7519E+02 -1.9743E+00   1.7716E+02  0.000E+00  0.000E+00  0.000E+00  9.94867E+02  2.992E+00  4.338E+01  2.653E+00 -2.481E-01





UNSATURATED ZONE PACKAGE VOLUMETRIC BUDGET FOR  TIME STEP    30 STRESS PERIOD   29
  ------------------------------------------------------------------------------



     CUMULATIVE VOLUMES      L**3       RATES FOR THIS TIME STEP      L**3/T
     ------------------                 ------------------------

           IN:                                      IN:
           ---                                      ---
        INFILTRATION =  1023947682.7734          INFILTRATION =           4.5675

          OUT:                                     OUT:
          ----                                     ----
              UZF ET =   879837397.5613                UZF ET =           4.5675
        UZF RECHARGE =   144037931.5316          UZF RECHARGE =       0.0000E+00

            IN - OUT =       72353.6805              IN - OUT =       0.0000E+00

          STORAGE:                                 STORAGE:
          --------                                 --------
      STORAGE CHANGE =       72339.3546        STORAGE CHANGE =       8.4197E-15

 PERCENT DISCREPANCY IS DIFFERENCE BETWEEN IN-OUT MINUS CHANGE IN STORAGE
 DIVIDED BY THE AVERAGE OF IN AND OUT TIMES 100

 PERCENT DISCREPANCY =           0.00     PERCENT DISCREPANCY =           0.00






1
  VOLUMETRIC BUDGET FOR AGRICULTURAL FIELDS AT  END OF TIME STEP   30, STRESS PERIOD  29
  ------------------------------------------------------------------------------

     CUMULATIVE VOLUMES      L**3       RATES FOR THIS TIME STEP      L**3/T
     ------------------                 ------------------------

           IN:                                      IN:
           ---                                      ---
               AG WELLS  =   961463808.0000                 AG WELLS  =           3.7200
      DIVERSION SEGMENTS =           0.0000        DIVERSION SEGMENTS =           0.0000
           GW IRRIGATION =           0.0000             GW IRRIGATION =           0.0000
           SW IRRIGATION =           0.0000             SW IRRIGATION =           0.0000
        SYSTEM LOSSES GW =           0.0000          SYSTEM LOSSES GW =           0.0000
        SYSTEM LOSSES SW =           0.0000          SYSTEM LOSSES SW =           0.0000

                TOTAL IN =   961463808.0000                  TOTAL IN =           3.7200

          OUT:                                     OUT:
          ----                                     ----
               AG WELLS  =           0.0000                 AG WELLS  =           0.0000
      DIVERSION SEGMENTS =           0.0000        DIVERSION SEGMENTS =           0.0000
           GW IRRIGATION =   961463808.0000             GW IRRIGATION =           3.7200
           SW IRRIGATION =           0.0000             SW IRRIGATION =           0.0000
        SYSTEM LOSSES GW =           0.0000          SYSTEM LOSSES GW =           0.0000
        SYSTEM LOSSES SW =           0.0000          SYSTEM LOSSES SW =           0.0000

               TOTAL OUT =   961463808.0000                 TOTAL OUT =           3.7200

                IN - OUT =           0.0000                  IN - OUT =           0.0000

     PERCENT DISCREPANCY =           0.00         PERCENT DISCREPANCY =           0.00



1
  VOLUMETRIC BUDGET FOR ENTIRE MODEL AT END OF TIME STEP   30, STRESS PERIOD  29
  ------------------------------------------------------------------------------

     CUMULATIVE VOLUMES      L**3       RATES FOR THIS TIME STEP      L**3/T
     ------------------                 ------------------------

           IN:                                      IN:
           ---                                      ---
             STORAGE     =  1272427776.0000               STORAGE     =           3.8513
       CONSTANT HEAD     =           0.0000         CONSTANT HEAD     =           0.0000
     HEAD DEP BOUNDS     =    21054366.0000       HEAD DEP BOUNDS     =           0.2863
      STREAM LEAKAGE     =   909320960.0000        STREAM LEAKAGE     =          11.8807
        UZF RECHARGE     =   144037952.0000          UZF RECHARGE     =           0.0000
               GW ET     =           0.0000                 GW ET     =           0.0000
     SURFACE LEAKAGE     =           0.0000       SURFACE LEAKAGE     =           0.0000
           AG WELLS      =           0.0000             AG WELLS      =           0.0000

                TOTAL IN =  2346841088.0000                  TOTAL IN =          16.0183

          OUT:                                     OUT:
          ----                                     ----
             STORAGE     =   584678912.0000               STORAGE     =           1.9676
       CONSTANT HEAD     =           0.0000         CONSTANT HEAD     =           0.0000
     HEAD DEP BOUNDS     =    21629506.0000       HEAD DEP BOUNDS     =           0.2892
      STREAM LEAKAGE     =   761539648.0000        STREAM LEAKAGE     =          10.0409
        UZF RECHARGE     =           0.0000          UZF RECHARGE     =           0.0000
               GW ET     =    17516984.0000                 GW ET     =           0.0000
     SURFACE LEAKAGE     =           0.0000       SURFACE LEAKAGE     =           0.0000
           AG WELLS      =   961463808.0000             AG WELLS      =           3.7200

               TOTAL OUT =  2346828800.0000                 TOTAL OUT =          16.0177

                IN - OUT =       12288.0000                  IN - OUT =       5.4359E-04

     PERCENT DISCREPANCY =           0.00         PERCENT DISCREPANCY =           0.00






         TIME SUMMARY AT END OF TIME STEP   30 IN STRESS PERIOD   29
                    SECONDS     MINUTES      HOURS       DAYS        YEARS
                    -----------------------------------------------------------
   TIME STEP LENGTH  87667.      1461.1      24.352      1.0147     2.77799E-03
 STRESS PERIOD TIME 2.63000E+06  43833.      730.56      30.440     8.33397E-02
         TOTAL TIME 7.37266E+07 1.22878E+06  20480.      853.32      2.3363    
1
1
                            STRESS PERIOD NO.   30, LENGTH =   2630000.    
                            -----------------------------------------------

                              NUMBER OF TIME STEPS =    30

                               MULTIPLIER FOR DELT =     1.000

                            INITIAL TIME STEP SIZE =   87666.66    

 REUSING NON-PARAMETER GHB CELLS FROM LAST STRESS PERIOD

      2 GHB CELLS

 REUSING STREAM SEGMENT DATA FROM LAST STRESS PERIOD



            AREAL INFILTRATION RATE
 READING ON UNIT   19 WITH FORMAT: (FREE)              

            1           2           3           4           5           6           7           8           9          10
 ........................................................................................................................
   1   1.0000E-10  2.0000E-10   0.000       0.000       0.000       0.000       0.000       0.000       0.000       0.000    
   2   2.0000E-10  1.0000E-10  2.0000E-10   0.000       0.000      8.0000E-10  8.0000E-10  5.0000E-10   0.000       0.000    
   3    0.000      5.0000E-10  1.0000E-10  1.0000E-10  8.0000E-10  8.0000E-10  5.0000E-10  5.0000E-10   0.000       0.000    
   4   8.0000E-10  5.0000E-10  1.0000E-10  1.0000E-10  1.0000E-10  1.0000E-10  1.0000E-10  1.0000E-10  2.0000E-10   0.000    
   5   8.0000E-10  5.0000E-10  1.0000E-10  1.0000E-10  1.0000E-10  1.0000E-10  1.0000E-10  1.0000E-10  1.0000E-10  1.0000E-10
   6   8.0000E-10  5.0000E-10  5.0000E-10  2.0000E-10  2.0000E-10  1.0000E-10  1.0000E-10  1.0000E-10  1.0000E-10  5.0000E-10
   7   8.0000E-10  5.0000E-10  5.0000E-10  2.0000E-10  2.0000E-10  1.0000E-10  1.0000E-10  2.0000E-10  2.0000E-10   0.000    
   8    0.000      5.0000E-10  5.0000E-10  2.0000E-10  2.0000E-10  1.0000E-10  1.0000E-10  2.0000E-10  5.0000E-10   0.000    
   9    0.000      5.0000E-10  5.0000E-10  2.0000E-10  2.0000E-10  1.0000E-10  1.0000E-10  2.0000E-10  5.0000E-10   0.000    
  10    0.000      5.0000E-10  5.0000E-10  2.0000E-10  2.0000E-10  1.0000E-10  1.0000E-10  2.0000E-10  5.0000E-10  8.0000E-10
  11    0.000      1.0000E-10  1.0000E-10  1.0000E-10  1.0000E-10  1.0000E-10  1.0000E-10  2.0000E-10  5.0000E-10   0.000    
  12   1.0000E-10  1.0000E-10  1.0000E-10  1.0000E-10  1.0000E-10  1.0000E-10  1.0000E-10  1.0000E-10  2.0000E-10   0.000    
  13   1.0000E-10  1.0000E-10  2.0000E-10  2.0000E-10  2.0000E-10  2.0000E-10  2.0000E-10  1.0000E-10  1.0000E-10   0.000    
  14    0.000      2.0000E-10  5.0000E-10  5.0000E-10  5.0000E-10  5.0000E-10  5.0000E-10  2.0000E-10  1.0000E-10   0.000    
  15    0.000       0.000      8.0000E-10  8.0000E-10  8.0000E-10  8.0000E-10   0.000       0.000       0.000       0.000    

                  ET RATE =  5.000000E-08

 USING ET EXTINCTION DEPTH FROM PREVIOUS STRESS PERIOD. CURRENT PERIOD IS:      30

 USING EXTINCTION WATER CONTENT FROM PREVIOUS STRESS PERIOD. CURRENT PERIOD IS:      30

 USING AIR ENTRY PRESSURE FROM PREVIOUS STRESS PERIOD. CURRENT PERIOD IS:      30

 USING ROOT PRESSURE HEAD FROM PREVIOUS STRESS PERIOD. CURRENT PERIOD IS:      30

 USING ROOT ACTIVITY FROM PREVIOUS STRESS PERIOD. CURRENT PERIOD IS:      30

 PROCESSING AG STRESS PERIOD DATA

 READING AG STRESS PERIOD DATA

 READING IRRIGATION WELL

 END PROCESSING AG STRESS PERIOD DATA OPTIONS
 
 SOLVING FOR HEAD 
                                                   Max.-Head-Change                         Max.-Flux-Residual
  Residual-Control   Outer-Iter.   Inner-Iter.     Column Row Layer    Maximum-Head-Change  Column Row Layer    Maximum-Flux-Residual          L2-NORM 
          0                 1           2             4    7     1      -0.1336763101E-01       4    7    1        -0.7000955054E+00      0.1769806832E+01
          0                 2           2             4    7     1       0.1300305259E-02       4    7    1         0.7000951017E-01      0.1769796730E+00
          0                 3           1             4    7     1      -0.8854597414E-04       4    7    1        -0.4900668215E-02      0.1238852774E-01

    ------------------------------------------------
       NWT REQUIRED            3 OUTER ITERATIONS 
       AND A TOTAL OF          5 INNER ITERATIONS.
    ------------------------------------------------

 NO OUTPUT CONTROL FOR STRESS PERIOD   30   TIME STEP    1
 
 SOLVING FOR HEAD 
                                                   Max.-Head-Change                         Max.-Flux-Residual
  Residual-Control   Outer-Iter.   Inner-Iter.     Column Row Layer    Maximum-Head-Change  Column Row Layer    Maximum-Flux-Residual          L2-NORM 
          0                 1           2             4    7     1      -0.1325608714E-01       4    7    1        -0.6945622526E+00      0.1731325888E+01
          0                 2           2             4    7     1       0.1289454909E-02       4    7    1         0.6945617281E-01      0.1731315797E+00
          0                 3           1             4    7     1      -0.8780710705E-04       4    7    1        -0.4861934693E-02      0.1211915058E-01

    ------------------------------------------------
       NWT REQUIRED            3 OUTER ITERATIONS 
       AND A TOTAL OF          5 INNER ITERATIONS.
    ------------------------------------------------

 NO OUTPUT CONTROL FOR STRESS PERIOD   30   TIME STEP    2
 
 SOLVING FOR HEAD 
                                                   Max.-Head-Change                         Max.-Flux-Residual
  Residual-Control   Outer-Iter.   Inner-Iter.     Column Row Layer    Maximum-Head-Change  Column Row Layer    Maximum-Flux-Residual          L2-NORM 
          0                 1           2             4    7     1      -0.1314009858E-01       4    7    1        -0.6887713312E+00      0.1694614313E+01
          0                 2           2             4    7     1       0.1278172230E-02       4    7    1         0.6887706990E-01      0.1694604380E+00
          0                 3           1             4    7     1      -0.8703880017E-04       4    7    1        -0.4821397577E-02      0.1186218541E-01

    ------------------------------------------------
       NWT REQUIRED            3 OUTER ITERATIONS 
       AND A TOTAL OF          5 INNER ITERATIONS.
    ------------------------------------------------

 NO OUTPUT CONTROL FOR STRESS PERIOD   30   TIME STEP    3
 
 SOLVING FOR HEAD 
                                                   Max.-Head-Change                         Max.-Flux-Residual
  Residual-Control   Outer-Iter.   Inner-Iter.     Column Row Layer    Maximum-Head-Change  Column Row Layer    Maximum-Flux-Residual          L2-NORM 
          0                 1           2             4    7     1      -0.1301989487E-01       4    7    1        -0.6827352710E+00      0.1659565241E+01
          0                 2           2             4    7     1       0.1266479551E-02       4    7    1         0.6827345432E-01      0.1659555412E+00
          0                 3           1             4    7     1      -0.8624257342E-04       4    7    1        -0.4779144565E-02      0.1161684378E-01

    ------------------------------------------------
       NWT REQUIRED            3 OUTER ITERATIONS 
       AND A TOTAL OF          5 INNER ITERATIONS.
    ------------------------------------------------

 NO OUTPUT CONTROL FOR STRESS PERIOD   30   TIME STEP    4
 
 SOLVING FOR HEAD 
                                                   Max.-Head-Change                         Max.-Flux-Residual
  Residual-Control   Outer-Iter.   Inner-Iter.     Column Row Layer    Maximum-Head-Change  Column Row Layer    Maximum-Flux-Residual          L2-NORM 
          0                 1           2             4    7     1      -0.1289621688E-01       4    7    1        -0.6764953582E+00      0.1626057906E+01
          0                 2           2             4    7     1       0.1254448935E-02       4    7    1         0.6764945462E-01      0.1626048263E+00
          0                 3           1             4    7     1      -0.8542333433E-04       4    7    1        -0.4735464640E-02      0.1138228584E-01

    ------------------------------------------------
       NWT REQUIRED            3 OUTER ITERATIONS 
       AND A TOTAL OF          5 INNER ITERATIONS.
    ------------------------------------------------

 NO OUTPUT CONTROL FOR STRESS PERIOD   30   TIME STEP    5
 
 SOLVING FOR HEAD 
                                                   Max.-Head-Change                         Max.-Flux-Residual
  Residual-Control   Outer-Iter.   Inner-Iter.     Column Row Layer    Maximum-Head-Change  Column Row Layer    Maximum-Flux-Residual          L2-NORM 
          0                 1           2             4    7     1      -0.1276950254E-01       4    7    1        -0.6700753131E+00      0.1594008734E+01
          0                 2           2             4    7     1       0.1242122979E-02       4    7    1         0.6700744267E-01      0.1593998961E+00
          0                 3           1             4    7     1      -0.8458398334E-04       4    7    1        -0.4690523860E-02      0.1115793069E-01

    ------------------------------------------------
       NWT REQUIRED            3 OUTER ITERATIONS 
       AND A TOTAL OF          5 INNER ITERATIONS.
    ------------------------------------------------

 NO OUTPUT CONTROL FOR STRESS PERIOD   30   TIME STEP    6
 
 SOLVING FOR HEAD 
                                                   Max.-Head-Change                         Max.-Flux-Residual
  Residual-Control   Outer-Iter.   Inner-Iter.     Column Row Layer    Maximum-Head-Change  Column Row Layer    Maximum-Flux-Residual          L2-NORM 
          0                 1           2             4    7     1      -0.1263989045E-01       4    7    1        -0.6634831512E+00      0.1563321666E+01
          0                 2           2             4    7     1       0.1229515166E-02       4    7    1         0.6634822001E-01      0.1563312194E+00
          0                 3           1             4    7     1      -0.8372543898E-04       4    7    1        -0.4644378313E-02      0.1094315470E-01

    ------------------------------------------------
       NWT REQUIRED            3 OUTER ITERATIONS 
       AND A TOTAL OF          5 INNER ITERATIONS.
    ------------------------------------------------

 NO OUTPUT CONTROL FOR STRESS PERIOD   30   TIME STEP    7
 
 SOLVING FOR HEAD 
                                                   Max.-Head-Change                         Max.-Flux-Residual
  Residual-Control   Outer-Iter.   Inner-Iter.     Column Row Layer    Maximum-Head-Change  Column Row Layer    Maximum-Flux-Residual          L2-NORM 
          0                 1           2             4    7     1      -0.1250790680E-01       4    7    1        -0.6567480950E+00      0.1533907234E+01
          0                 2           2             4    7     1       0.1216676677E-02       4    7    1         0.6567470879E-01      0.1533897540E+00
          0                 3           1             4    7     1      -0.8285118626E-04       4    7    1        -0.4597232551E-02      0.1073722431E-01

    ------------------------------------------------
       NWT REQUIRED            3 OUTER ITERATIONS 
       AND A TOTAL OF          5 INNER ITERATIONS.
    ------------------------------------------------

 NO OUTPUT CONTROL FOR STRESS PERIOD   30   TIME STEP    8
 
 SOLVING FOR HEAD 
                                                   Max.-Head-Change                         Max.-Flux-Residual
  Residual-Control   Outer-Iter.   Inner-Iter.     Column Row Layer    Maximum-Head-Change  Column Row Layer    Maximum-Flux-Residual          L2-NORM 
          0                 1           2             4    7     1      -0.1237404368E-01       4    7    1        -0.6498974268E+00      0.1505699503E+01
          0                 2           2             4    7     1       0.1203655378E-02       4    7    1         0.6498963714E-01      0.1505689814E+00
          0                 3           1             4    7     1      -0.8196448487E-04       4    7    1        -0.4549277557E-02      0.1053977241E-01

    ------------------------------------------------
       NWT REQUIRED            3 OUTER ITERATIONS 
       AND A TOTAL OF          5 INNER ITERATIONS.
    ------------------------------------------------

 NO OUTPUT CONTROL FOR STRESS PERIOD   30   TIME STEP    9
 
 SOLVING FOR HEAD 
                                                   Max.-Head-Change                         Max.-Flux-Residual
  Residual-Control   Outer-Iter.   Inner-Iter.     Column Row Layer    Maximum-Head-Change  Column Row Layer    Maximum-Flux-Residual          L2-NORM 
          0                 1           2             4    7     1      -0.1223836045E-01       4    7    1        -0.6429346247E+00      0.1478620683E+01
          0                 2           2             4    7     1       0.1190423708E-02       4    7    1         0.6429335286E-01      0.1477857644E+00
          0                 3           1             4    7     1      -0.8106345730E-04       4    7    1        -0.4500537676E-02      0.1034494086E-01

    ------------------------------------------------
       NWT REQUIRED            3 OUTER ITERATIONS 
       AND A TOTAL OF          5 INNER ITERATIONS.
    ------------------------------------------------

 NO OUTPUT CONTROL FOR STRESS PERIOD   30   TIME STEP   10
 
 SOLVING FOR HEAD 
                                                   Max.-Head-Change                         Max.-Flux-Residual
  Residual-Control   Outer-Iter.   Inner-Iter.     Column Row Layer    Maximum-Head-Change  Column Row Layer    Maximum-Flux-Residual          L2-NORM 
          0                 1           2             4    7     1      -0.1210147495E-01       4    7    1        -0.6358865741E+00      0.1452657667E+01
          0                 2           2             4    7     1       0.1177141797E-02       4    7    1         0.6358854460E-01      0.1452648588E+00
          0                 3           1             4    7     1      -0.8015900886E-04       4    7    1        -0.4451201103E-02      0.1016849865E-01

    ------------------------------------------------
       NWT REQUIRED            3 OUTER ITERATIONS 
       AND A TOTAL OF          5 INNER ITERATIONS.
    ------------------------------------------------

 NO OUTPUT CONTROL FOR STRESS PERIOD   30   TIME STEP   11
 
 SOLVING FOR HEAD 
                                                   Max.-Head-Change                         Max.-Flux-Residual
  Residual-Control   Outer-Iter.   Inner-Iter.     Column Row Layer    Maximum-Head-Change  Column Row Layer    Maximum-Flux-Residual          L2-NORM 
          0                 1           2             4    7     1      -0.1196370013E-01       4    7    1        -0.6287799927E+00      0.1427829265E+01
          0                 2           2             4    7     1       0.1163740027E-02       4    7    1         0.6287788380E-01      0.1427820216E+00
          0                 3           1             4    7     1      -0.7924639838E-04       4    7    1        -0.4401454848E-02      0.9994683198E-02

    ------------------------------------------------
       NWT REQUIRED            3 OUTER ITERATIONS 
       AND A TOTAL OF          5 INNER ITERATIONS.
    ------------------------------------------------

 NO OUTPUT CONTROL FOR STRESS PERIOD   30   TIME STEP   12
 
 SOLVING FOR HEAD 
                                                   Max.-Head-Change                         Max.-Flux-Residual
  Residual-Control   Outer-Iter.   Inner-Iter.     Column Row Layer    Maximum-Head-Change  Column Row Layer    Maximum-Flux-Residual          L2-NORM 
          0                 1           2             4    7     1      -0.1182504574E-01       4    7    1        -0.6216143895E+00      0.1403929226E+01
          0                 2           2             4    7     1       0.1150252706E-02       4    7    1         0.6216132133E-01      0.1403920396E+00
          0                 3           1             4    7     1      -0.7832796254E-04       4    7    1        -0.4351295479E-02      0.9827398318E-02

    ------------------------------------------------
       NWT REQUIRED            3 OUTER ITERATIONS 
       AND A TOTAL OF          5 INNER ITERATIONS.
    ------------------------------------------------

 NO OUTPUT CONTROL FOR STRESS PERIOD   30   TIME STEP   13
 
 SOLVING FOR HEAD 
                                                   Max.-Head-Change                         Max.-Flux-Residual
  Residual-Control   Outer-Iter.   Inner-Iter.     Column Row Layer    Maximum-Head-Change  Column Row Layer    Maximum-Flux-Residual          L2-NORM 
          0                 1           2             4    7     1      -0.1168589130E-01       4    7    1        -0.6144105302E+00      0.1380928452E+01
          0                 2           2             4    7     1       0.1136716751E-02       4    7    1         0.6144093372E-01      0.1380919587E+00
          0                 3           1             4    7     1      -0.7740621411E-04       4    7    1        -0.4300868340E-02      0.9666376695E-02

    ------------------------------------------------
       NWT REQUIRED            3 OUTER ITERATIONS 
       AND A TOTAL OF          5 INNER ITERATIONS.
    ------------------------------------------------

 NO OUTPUT CONTROL FOR STRESS PERIOD   30   TIME STEP   14
 
 SOLVING FOR HEAD 
                                                   Max.-Head-Change                         Max.-Flux-Residual
  Residual-Control   Outer-Iter.   Inner-Iter.     Column Row Layer    Maximum-Head-Change  Column Row Layer    Maximum-Flux-Residual          L2-NORM 
          0                 1           2             4    7     1      -0.1154645874E-01       4    7    1        -0.6071807479E+00      0.1358771656E+01
          0                 2           2             4    7     1       0.1123153748E-02       4    7    1         0.6071795427E-01      0.1358762646E+00
          0                 3           1             4    7     1      -0.7648262424E-04       4    7    1        -0.4250259765E-02      0.9511271151E-02

    ------------------------------------------------
       NWT REQUIRED            3 OUTER ITERATIONS 
       AND A TOTAL OF          5 INNER ITERATIONS.
    ------------------------------------------------

 NO OUTPUT CONTROL FOR STRESS PERIOD   30   TIME STEP   15
 
 SOLVING FOR HEAD 
                                                   Max.-Head-Change                         Max.-Flux-Residual
  Residual-Control   Outer-Iter.   Inner-Iter.     Column Row Layer    Maximum-Head-Change  Column Row Layer    Maximum-Flux-Residual          L2-NORM 
          0                 1           2             4    7     1      -0.1140694557E-01       4    7    1        -0.5999365495E+00      0.1337408012E+01
          0                 2           2             4    7     1       0.1109582911E-02       4    7    1         0.5999353358E-01      0.1337399235E+00
          0                 3           1             4    7     1      -0.7555850067E-04       4    7    1        -0.4199550307E-02      0.9361731938E-02

    ------------------------------------------------
       NWT REQUIRED            3 OUTER ITERATIONS 
       AND A TOTAL OF          5 INNER ITERATIONS.
    ------------------------------------------------

 NO OUTPUT CONTROL FOR STRESS PERIOD   30   TIME STEP   16
 
 SOLVING FOR HEAD 
                                                   Max.-Head-Change                         Max.-Flux-Residual
  Residual-Control   Outer-Iter.   Inner-Iter.     Column Row Layer    Maximum-Head-Change  Column Row Layer    Maximum-Flux-Residual          L2-NORM 
          0                 1           2             4    7     1      -0.1126754066E-01       4    7    1        -0.5926881754E+00      0.1316812751E+01
          0                 2           2             4    7     1       0.1096022610E-02       4    7    1         0.5926869570E-01      0.1316804036E+00
          0                 3           1             4    7     1      -0.7463509445E-04       4    7    1        -0.4148811640E-02      0.9217576676E-02

    ------------------------------------------------
       NWT REQUIRED            3 OUTER ITERATIONS 
       AND A TOTAL OF          5 INNER ITERATIONS.
    ------------------------------------------------

 NO OUTPUT CONTROL FOR STRESS PERIOD   30   TIME STEP   17
 
 SOLVING FOR HEAD 
                                                   Max.-Head-Change                         Max.-Flux-Residual
  Residual-Control   Outer-Iter.   Inner-Iter.     Column Row Layer    Maximum-Head-Change  Column Row Layer    Maximum-Flux-Residual          L2-NORM 
          0                 1           2             4    7     1      -0.1112841665E-01       4    7    1        -0.5854454180E+00      0.1296939510E+01
          0                 2           2             4    7     1       0.1082489636E-02       4    7    1         0.5854441979E-01      0.1296930922E+00
          0                 3           1             4    7     1      -0.7371354909E-04       4    7    1        -0.4098112313E-02      0.9078456164E-02

    ------------------------------------------------
       NWT REQUIRED            3 OUTER ITERATIONS 
       AND A TOTAL OF          5 INNER ITERATIONS.
    ------------------------------------------------

 NO OUTPUT CONTROL FOR STRESS PERIOD   30   TIME STEP   18
 
 SOLVING FOR HEAD 
                                                   Max.-Head-Change                         Max.-Flux-Residual
  Residual-Control   Outer-Iter.   Inner-Iter.     Column Row Layer    Maximum-Head-Change  Column Row Layer    Maximum-Flux-Residual          L2-NORM 
          0                 1           2             4    7     1      -0.1098972850E-01       4    7    1        -0.5782172281E+00      0.1277755159E+01
          0                 2           2             4    7     1       0.1068999065E-02       4    7    1         0.5782160092E-01      0.1277746843E+00
          0                 3           1             4    7     1      -0.7279489149E-04       4    7    1        -0.4047514967E-02      0.8944199022E-02

    ------------------------------------------------
       NWT REQUIRED            3 OUTER ITERATIONS 
       AND A TOTAL OF          5 INNER ITERATIONS.
    ------------------------------------------------

 NO OUTPUT CONTROL FOR STRESS PERIOD   30   TIME STEP   19
 
 SOLVING FOR HEAD 
                                                   Max.-Head-Change                         Max.-Flux-Residual
  Residual-Control   Outer-Iter.   Inner-Iter.     Column Row Layer    Maximum-Head-Change  Column Row Layer    Maximum-Flux-Residual          L2-NORM 
          0                 1           2             4    7     1      -0.1085148601E-01       4    7    1        -0.5710042981E+00      0.1259218686E+01
          0                 2           2             4    7     1       0.1055551847E-02       4    7    1         0.5710030830E-01      0.1259209945E+00
          0                 3           1             4    7     1      -0.7187918544E-04       4    7    1        -0.3997024450E-02      0.8814398185E-02

    ------------------------------------------------
       NWT REQUIRED            3 OUTER ITERATIONS 
       AND A TOTAL OF          5 INNER ITERATIONS.
    ------------------------------------------------

 NO OUTPUT CONTROL FOR STRESS PERIOD   30   TIME STEP   20
 
 SOLVING FOR HEAD 
                                                   Max.-Head-Change                         Max.-Flux-Residual
  Residual-Control   Outer-Iter.   Inner-Iter.     Column Row Layer    Maximum-Head-Change  Column Row Layer    Maximum-Flux-Residual          L2-NORM 
          0                 1           2             4    7     1      -0.1071409552E-01       4    7    1        -0.5638291635E+00      0.1241308559E+01
          0                 2           2             4    7     1       0.1042187510E-02       4    7    1         0.5638279544E-01      0.1241300093E+00
          0                 3           1             4    7     1      -0.7096912393E-04       4    7    1        -0.3946798532E-02      0.8689043432E-02

    ------------------------------------------------
       NWT REQUIRED            3 OUTER ITERATIONS 
       AND A TOTAL OF          5 INNER ITERATIONS.
    ------------------------------------------------

 NO OUTPUT CONTROL FOR STRESS PERIOD   30   TIME STEP   21
 
 SOLVING FOR HEAD 
                                                   Max.-Head-Change                         Max.-Flux-Residual
  Residual-Control   Outer-Iter.   Inner-Iter.     Column Row Layer    Maximum-Head-Change  Column Row Layer    Maximum-Flux-Residual          L2-NORM 
          0                 1           2             4    7     1      -0.1057753302E-01       4    7    1        -0.5566908649E+00      0.1223998179E+01
          0                 2           2             4    7     1       0.1028903715E-02       4    7    1         0.5566896640E-01      0.1223989879E+00
          0                 3           1             4    7     1      -0.7006454662E-04       4    7    1        -0.3896830462E-02      0.8567891429E-02

    ------------------------------------------------
       NWT REQUIRED            3 OUTER ITERATIONS 
       AND A TOTAL OF          5 INNER ITERATIONS.
    ------------------------------------------------

 NO OUTPUT CONTROL FOR STRESS PERIOD   30   TIME STEP   22
 
 SOLVING FOR HEAD 
                                                   Max.-Head-Change                         Max.-Flux-Residual
  Residual-Control   Outer-Iter.   Inner-Iter.     Column Row Layer    Maximum-Head-Change  Column Row Layer    Maximum-Flux-Residual          L2-NORM 
          0                 1           2             4    7     1      -0.1044177821E-01       4    7    1        -0.5495881566E+00      0.1207252929E+01
          0                 2           2             4    7     1       0.1015698490E-02       4    7    1         0.5495869656E-01      0.1207244567E+00
          0                 3           1             4    7     1      -0.6916531966E-04       4    7    1        -0.3847111553E-02      0.8450669597E-02

    ------------------------------------------------
       NWT REQUIRED            3 OUTER ITERATIONS 
       AND A TOTAL OF          5 INNER ITERATIONS.
    ------------------------------------------------

 NO OUTPUT CONTROL FOR STRESS PERIOD   30   TIME STEP   23
 
 SOLVING FOR HEAD 
                                                   Max.-Head-Change                         Max.-Flux-Residual
  Residual-Control   Outer-Iter.   Inner-Iter.     Column Row Layer    Maximum-Head-Change  Column Row Layer    Maximum-Flux-Residual          L2-NORM 
          0                 1           2             4    7     1      -0.1030720092E-01       4    7    1        -0.5425420142E+00      0.1191051708E+01
          0                 2           2             4    7     1       0.1002607808E-02       4    7    1         0.5425408346E-01      0.1191043275E+00
          0                 3           1             4    7     1      -0.6827389262E-04       4    7    1        -0.3797788612E-02      0.8337242091E-02

    ------------------------------------------------
       NWT REQUIRED            3 OUTER ITERATIONS 
       AND A TOTAL OF          5 INNER ITERATIONS.
    ------------------------------------------------

 NO OUTPUT CONTROL FOR STRESS PERIOD   30   TIME STEP   24
 
 SOLVING FOR HEAD 
                                                   Max.-Head-Change                         Max.-Flux-Residual
  Residual-Control   Outer-Iter.   Inner-Iter.     Column Row Layer    Maximum-Head-Change  Column Row Layer    Maximum-Flux-Residual          L2-NORM 
          0                 1           2             4    7     1      -0.1017361079E-01       4    7    1        -0.5355422432E+00      0.1175369194E+01
          0                 2           2             4    7     1       0.9896131517E-03       4    7    1         0.5355410765E-01      0.1175360882E+00
          0                 3           1             4    7     1      -0.6738900463E-04       4    7    1        -0.3748790267E-02      0.8227467464E-02

    ------------------------------------------------
       NWT REQUIRED            3 OUTER ITERATIONS 
       AND A TOTAL OF          5 INNER ITERATIONS.
    ------------------------------------------------

 NO OUTPUT CONTROL FOR STRESS PERIOD   30   TIME STEP   25
 
 SOLVING FOR HEAD 
                                                   Max.-Head-Change                         Max.-Flux-Residual
  Residual-Control   Outer-Iter.   Inner-Iter.     Column Row Layer    Maximum-Head-Change  Column Row Layer    Maximum-Flux-Residual          L2-NORM 
          0                 1           2             4    7     1      -0.1004137080E-01       4    7    1        -0.5286083421E+00      0.1160195477E+01
          0                 2           2             4    7     1       0.9767498278E-03       4    7    1         0.5286071894E-01      0.1160187236E+00
          0                 3           1             4    7     1      -0.6651305969E-04       4    7    1        -0.3700253027E-02      0.8121258203E-02

    ------------------------------------------------
       NWT REQUIRED            3 OUTER ITERATIONS 
       AND A TOTAL OF          5 INNER ITERATIONS.
    ------------------------------------------------

 NO OUTPUT CONTROL FOR STRESS PERIOD   30   TIME STEP   26
 
 SOLVING FOR HEAD 
                                                   Max.-Head-Change                         Max.-Flux-Residual
  Residual-Control   Outer-Iter.   Inner-Iter.     Column Row Layer    Maximum-Head-Change  Column Row Layer    Maximum-Flux-Residual          L2-NORM 
          0                 1           2             4    7     1      -0.9910405576E-02       4    7    1        -0.5217371044E+00      0.1145489914E+01
          0                 2           2             4    7     1       0.9640105061E-03       4    7    1         0.5217359665E-01      0.1145481756E+00
          0                 3           1             4    7     1      -0.6564555902E-04       4    7    1        -0.3652154427E-02      0.8018320603E-02

    ------------------------------------------------
       NWT REQUIRED            3 OUTER ITERATIONS 
       AND A TOTAL OF          5 INNER ITERATIONS.
    ------------------------------------------------

 NO OUTPUT CONTROL FOR STRESS PERIOD   30   TIME STEP   27
 
 SOLVING FOR HEAD 
                                                   Max.-Head-Change                         Max.-Flux-Residual
  Residual-Control   Outer-Iter.   Inner-Iter.     Column Row Layer    Maximum-Head-Change  Column Row Layer    Maximum-Flux-Residual          L2-NORM 
          0                 1           2             4    7     1      -0.9780643992E-02       4    7    1        -0.5149246232E+00      0.1131242909E+01
          0                 2           2             4    7     1       0.9513882671E-03       4    7    1         0.5149235014E-01      0.1131234931E+00
          0                 3           1             4    7     1      -0.6478603116E-04       4    7    1        -0.3604467140E-02      0.7918587624E-02

    ------------------------------------------------
       NWT REQUIRED            3 OUTER ITERATIONS 
       AND A TOTAL OF          5 INNER ITERATIONS.
    ------------------------------------------------

 NO OUTPUT CONTROL FOR STRESS PERIOD   30   TIME STEP   28
 
 SOLVING FOR HEAD 
                                                   Max.-Head-Change                         Max.-Flux-Residual
  Residual-Control   Outer-Iter.   Inner-Iter.     Column Row Layer    Maximum-Head-Change  Column Row Layer    Maximum-Flux-Residual          L2-NORM 
          0                 1           2             4    7     1      -0.9652417898E-02       4    7    1        -0.5081892348E+00      0.1117434590E+01
          0                 2           2             4    7     1       0.9389153902E-03       4    7    1         0.5081881297E-01      0.1117426177E+00
          0                 3           1             4    7     1      -0.6393667398E-04       4    7    1        -0.3557319485E-02      0.7821898286E-02

    ------------------------------------------------
       NWT REQUIRED            3 OUTER ITERATIONS 
       AND A TOTAL OF          5 INNER ITERATIONS.
    ------------------------------------------------

 NO OUTPUT CONTROL FOR STRESS PERIOD   30   TIME STEP   29
 
 SOLVING FOR HEAD 
                                                   Max.-Head-Change                         Max.-Flux-Residual
  Residual-Control   Outer-Iter.   Inner-Iter.     Column Row Layer    Maximum-Head-Change  Column Row Layer    Maximum-Flux-Residual          L2-NORM 
          0                 1           2             4    7     1      -0.9525637207E-02       4    7    1        -0.5015261204E+00      0.1104053909E+01
          0                 2           2             4    7     1       0.9265831126E-03       4    7    1         0.5015250328E-01      0.1104045837E+00
          0                 3           1             4    7     1      -0.6309689118E-04       4    7    1        -0.3510677765E-02      0.7728284523E-02

    ------------------------------------------------
       NWT REQUIRED            3 OUTER ITERATIONS 
       AND A TOTAL OF          5 INNER ITERATIONS.
    ------------------------------------------------

 NO OUTPUT CONTROL FOR STRESS PERIOD   30   TIME STEP   30



 STREAM LISTING     PERIOD     30   STEP       30

 LAYER ROW COL. STREAM  RCH.  FLOW INTO     FLOW TO   FLOW OUT OF   OVRLND.     DIRECT     STREAM       STREAM     STREAM     STREAM   STREAMBED  STREAMBED
                SEG.NO.  NO.  STRM. RCH.    AQUIFER    STRM. RCH.    RUNOFF     PRECIP       ET          HEAD       DEPTH      WIDTH   CONDCTNC.   GRADIENT

   1    1    1     1     1    1.9000E+01  2.1427E-01   1.8786E+01  0.000E+00  0.000E+00  0.000E+00  1.09413E+03  1.082E+00  1.166E+01  5.249E-02  1.361E+00
   1    2    2     1     2    1.8786E+01  3.3054E-01   1.8455E+01  0.000E+00  0.000E+00  0.000E+00  1.08914E+03  1.077E+00  1.158E+01  8.107E-02  1.359E+00
   1    3    3     1     3    1.8455E+01  2.8064E-01   1.8175E+01  0.000E+00  0.000E+00  0.000E+00  1.08349E+03  1.072E+00  1.149E+01  6.892E-02  1.357E+00
   1    3    4     1     4    1.8175E+01  2.5740E-01   1.7917E+01  0.000E+00  0.000E+00  0.000E+00  1.07848E+03  1.068E+00  1.140E+01  6.328E-02  1.356E+00
   1    4    5     2     1    1.5917E+01  3.0542E-01   1.5612E+01  0.000E+00  0.000E+00  0.000E+00  1.07285E+03  9.157E-01  1.200E+01  7.800E-02  1.305E+00
   1    5    6     2     2    1.5612E+01  2.3438E-01   1.5377E+01  0.000E+00  0.000E+00  0.000E+00  1.06742E+03  9.063E-01  1.200E+01  6.000E-02  1.302E+00
   1    6    6     2     3    1.5377E+01  2.3388E-01   1.5143E+01  0.000E+00  0.000E+00  0.000E+00  1.06269E+03  8.980E-01  1.200E+01  6.000E-02  1.299E+00
   1    7    6     2     4    1.5143E+01  2.3338E-01   1.4910E+01  0.000E+00  0.000E+00  0.000E+00  1.05797E+03  8.897E-01  1.200E+01  6.000E-02  1.297E+00
   1    8    6     2     5    1.4910E+01  2.3289E-01   1.4677E+01  0.000E+00  0.000E+00  0.000E+00  1.05324E+03  8.814E-01  1.200E+01  6.000E-02  1.294E+00
   1    3    5     3     1    2.0000E+00  2.8252E-01   1.7175E+00  0.000E+00  0.000E+00  0.000E+00  1.07555E+03  1.909E+00  9.636E+00  7.227E-02  1.955E+00
   1    3    6     3     2    1.7175E+00  2.4905E-01   1.4684E+00  0.000E+00  0.000E+00  0.000E+00  1.07264E+03  1.727E+00  8.909E+00  6.682E-02  1.864E+00
   1    3    7     3     3    1.4684E+00  1.9718E-01   1.2712E+00  0.000E+00  0.000E+00  0.000E+00  1.06987E+03  1.555E+00  8.218E+00  5.547E-02  1.777E+00
   1    4    8     3     4    1.2712E+00  2.2567E-01   1.0456E+00  0.000E+00  0.000E+00  0.000E+00  1.06682E+03  1.364E+00  7.455E+00  6.709E-02  1.682E+00
   1    5    8     3     5    1.0456E+00  1.5790E-01   8.8768E-01  0.000E+00  0.000E+00  0.000E+00  1.06362E+03  1.164E+00  6.655E+00  4.991E-02  1.582E+00
   1    6    8     3     6    8.8768E-01  5.5980E-02   8.3170E-01  0.000E+00  0.000E+00  0.000E+00  1.06158E+03  1.036E+00  6.145E+00  1.844E-02  1.518E+00
   1    5   10     4     1    1.0000E+01  9.0919E-02   9.9091E+00  0.000E+00  0.000E+00  0.000E+00  1.07836E+03  6.368E-01  1.000E+01  2.500E-02  1.212E+00
   1    5    9     4     2    9.9091E+00  1.8158E-01   9.7275E+00  0.000E+00  0.000E+00  0.000E+00  1.07154E+03  6.315E-01  1.000E+01  5.000E-02  1.211E+00
   1    6    8     4     3    9.7275E+00  1.2689E-01   9.6006E+00  0.000E+00  0.000E+00  0.000E+00  1.06381E+03  6.256E-01  1.000E+01  3.500E-02  1.209E+00
   1    6    8     5     1    1.0432E+01  2.2686E-01   1.0205E+01  0.000E+00  0.000E+00  0.000E+00  1.05868E+03  6.790E-01  1.542E+01  6.166E-02  1.226E+00
   1    7    7     5     2    1.0205E+01  2.7894E-01   9.9265E+00  0.000E+00  0.000E+00  0.000E+00  1.05417E+03  6.732E-01  1.519E+01  7.594E-02  1.224E+00
   1    8    7     5     3    9.9265E+00  1.9221E-01   9.7343E+00  0.000E+00  0.000E+00  0.000E+00  1.04992E+03  6.676E-01  1.497E+01  5.241E-02  1.223E+00
   1    8    6     5     4    9.7343E+00  1.3577E-01   9.5985E+00  0.000E+00  0.000E+00  0.000E+00  1.04691E+03  6.637E-01  1.482E+01  3.706E-02  1.221E+00
   1    9    6     6     1    2.4276E+01  2.5176E-01   2.4024E+01  0.000E+00  0.000E+00  0.000E+00  1.04392E+03  1.196E+00  1.200E+01  6.000E-02  1.399E+00
   1   10    7     6     2    2.4024E+01  2.5131E-01   2.3773E+01  0.000E+00  0.000E+00  0.000E+00  1.03937E+03  1.188E+00  1.200E+01  6.000E-02  1.396E+00
   1   11    7     6     3    2.3773E+01  2.5086E-01   2.3522E+01  0.000E+00  0.000E+00  0.000E+00  1.03482E+03  1.181E+00  1.200E+01  6.000E-02  1.394E+00
   1   12    7     6     4    2.3522E+01  2.5041E-01   2.3271E+01  0.000E+00  0.000E+00  0.000E+00  1.03026E+03  1.173E+00  1.200E+01  6.000E-02  1.391E+00
   1   13    7     6     5    2.3271E+01  6.1069E-03   2.3265E+01  0.000E+00  0.000E+00  0.000E+00  1.02708E+03  1.170E+00  1.200E+01  2.400E-02  8.482E-02
   1   14    9     7     1    1.5000E+02  1.3462E+00   1.4865E+02  0.000E+00  0.000E+00  0.000E+00  1.03987E+03  2.288E+00  5.529E+01  5.593E-01  8.023E-01
   1   13    8     7     2    1.4865E+02  1.8988E+00   1.4676E+02  0.000E+00  0.000E+00  0.000E+00  1.03478E+03  2.279E+00  5.526E+01  6.148E-01  1.030E+00
   1   13    7     7     3    1.4676E+02  1.5998E+00   1.4516E+02  0.000E+00  0.000E+00  0.000E+00  1.02969E+03  2.270E+00  5.521E+01  5.584E-01  9.550E-01
   1   13    6     8     1    1.6842E+02  1.0437E+00   1.6738E+02  0.000E+00  0.000E+00  0.000E+00  1.02481E+03  2.938E+00  4.261E+01  4.342E-01  8.013E-01
   1   13    5     8     2    1.6738E+02  2.9163E-01   1.6709E+02  0.000E+00  0.000E+00  0.000E+00  1.01856E+03  2.934E+00  4.254E+01  4.335E-01  2.242E-01
   1   13    4     8     3    1.6709E+02 -2.0453E+00   1.6913E+02  0.000E+00  0.000E+00  0.000E+00  1.01231E+03  2.940E+00  4.263E+01  4.344E+00 -1.569E-01
   1   13    3     8     4    1.6913E+02 -3.4589E+00   1.7259E+02  0.000E+00  0.000E+00  0.000E+00  1.00608E+03  2.958E+00  4.289E+01  4.370E+00 -2.638E-01
   1   13    2     8     5    1.7259E+02 -2.5339E+00   1.7512E+02  0.000E+00  0.000E+00  0.000E+00  9.99852E+02  2.977E+00  4.317E+01  4.399E+00 -1.920E-01
   1   13    1     8     6    1.7512E+02 -1.9729E+00   1.7710E+02  0.000E+00  0.000E+00  0.000E+00  9.94867E+02  2.992E+00  4.338E+01  2.652E+00 -2.480E-01





UNSATURATED ZONE PACKAGE VOLUMETRIC BUDGET FOR  TIME STEP    30 STRESS PERIOD   30
  ------------------------------------------------------------------------------



     CUMULATIVE VOLUMES      L**3       RATES FOR THIS TIME STEP      L**3/T
     ------------------                 ------------------------

           IN:                                      IN:
           ---                                      ---
        INFILTRATION =  1045822706.7123          INFILTRATION =           8.3175

          OUT:                                     OUT:
          ----                                     ----
              UZF ET =   901712421.5002                UZF ET =           8.3175
        UZF RECHARGE =   144037931.5316          UZF RECHARGE =       0.0000E+00

            IN - OUT =       72353.6805              IN - OUT =       0.0000E+00

          STORAGE:                                 STORAGE:
          --------                                 --------
      STORAGE CHANGE =       72339.3546        STORAGE CHANGE =       8.4411E-15

 PERCENT DISCREPANCY IS DIFFERENCE BETWEEN IN-OUT MINUS CHANGE IN STORAGE
 DIVIDED BY THE AVERAGE OF IN AND OUT TIMES 100

 PERCENT DISCREPANCY =           0.00     PERCENT DISCREPANCY =           0.00






1
  VOLUMETRIC BUDGET FOR AGRICULTURAL FIELDS AT  END OF TIME STEP   30, STRESS PERIOD  30
  ------------------------------------------------------------------------------

     CUMULATIVE VOLUMES      L**3       RATES FOR THIS TIME STEP      L**3/T
     ------------------                 ------------------------

           IN:                                      IN:
           ---                                      ---
               AG WELLS  =   981109248.0000                 AG WELLS  =           7.4700
      DIVERSION SEGMENTS =           0.0000        DIVERSION SEGMENTS =           0.0000
           GW IRRIGATION =           0.0000             GW IRRIGATION =           0.0000
           SW IRRIGATION =           0.0000             SW IRRIGATION =           0.0000
        SYSTEM LOSSES GW =           0.0000          SYSTEM LOSSES GW =           0.0000
        SYSTEM LOSSES SW =           0.0000          SYSTEM LOSSES SW =           0.0000

                TOTAL IN =   981109248.0000                  TOTAL IN =           7.4700

          OUT:                                     OUT:
          ----                                     ----
               AG WELLS  =           0.0000                 AG WELLS  =           0.0000
      DIVERSION SEGMENTS =           0.0000        DIVERSION SEGMENTS =           0.0000
           GW IRRIGATION =   981109248.0000             GW IRRIGATION =           7.4700
           SW IRRIGATION =           0.0000             SW IRRIGATION =           0.0000
        SYSTEM LOSSES GW =           0.0000          SYSTEM LOSSES GW =           0.0000
        SYSTEM LOSSES SW =           0.0000          SYSTEM LOSSES SW =           0.0000

               TOTAL OUT =   981109248.0000                 TOTAL OUT =           7.4700

                IN - OUT =           0.0000                  IN - OUT =           0.0000

     PERCENT DISCREPANCY =           0.00         PERCENT DISCREPANCY =           0.00



1
  VOLUMETRIC BUDGET FOR ENTIRE MODEL AT END OF TIME STEP   30, STRESS PERIOD  30
  ------------------------------------------------------------------------------

     CUMULATIVE VOLUMES      L**3       RATES FOR THIS TIME STEP      L**3/T
     ------------------                 ------------------------

           IN:                                      IN:
           ---                                      ---
             STORAGE     =  1289721344.0000               STORAGE     =           6.0284
       CONSTANT HEAD     =           0.0000         CONSTANT HEAD     =           0.0000
     HEAD DEP BOUNDS     =    21807610.0000       HEAD DEP BOUNDS     =           0.2865
      STREAM LEAKAGE     =   940614976.0000        STREAM LEAKAGE     =          11.9148
        UZF RECHARGE     =   144037952.0000          UZF RECHARGE     =           0.0000
               GW ET     =           0.0000                 GW ET     =           0.0000
     SURFACE LEAKAGE     =           0.0000       SURFACE LEAKAGE     =           0.0000
           AG WELLS      =           0.0000             AG WELLS      =           0.0000

                TOTAL IN =  2396181760.0000                  TOTAL IN =          18.2297

          OUT:                                     OUT:
          ----                                     ----
             STORAGE     =   587243584.0000               STORAGE     =           0.4580
       CONSTANT HEAD     =           0.0000         CONSTANT HEAD     =           0.0000
     HEAD DEP BOUNDS     =    22390132.0000       HEAD DEP BOUNDS     =           0.2892
      STREAM LEAKAGE     =   787904512.0000        STREAM LEAKAGE     =          10.0109
        UZF RECHARGE     =           0.0000          UZF RECHARGE     =           0.0000
               GW ET     =    17516984.0000                 GW ET     =           0.0000
     SURFACE LEAKAGE     =           0.0000       SURFACE LEAKAGE     =           0.0000
           AG WELLS      =   981109248.0000             AG WELLS      =           7.4700

               TOTAL OUT =  2396164608.0000                 TOTAL OUT =          18.2281

                IN - OUT =       17152.0000                  IN - OUT =       1.5984E-03

     PERCENT DISCREPANCY =           0.00         PERCENT DISCREPANCY =           0.01






         TIME SUMMARY AT END OF TIME STEP   30 IN STRESS PERIOD   30
                    SECONDS     MINUTES      HOURS       DAYS        YEARS
                    -----------------------------------------------------------
   TIME STEP LENGTH  87667.      1461.1      24.352      1.0147     2.77799E-03
 STRESS PERIOD TIME 2.63000E+06  43833.      730.56      30.440     8.33397E-02
         TOTAL TIME 7.63565E+07 1.27261E+06  21210.      883.76      2.4196    
1
1
                            STRESS PERIOD NO.   31, LENGTH =   2630000.    
                            -----------------------------------------------

                              NUMBER OF TIME STEPS =    30

                               MULTIPLIER FOR DELT =     1.000

                            INITIAL TIME STEP SIZE =   87666.66    

 REUSING NON-PARAMETER GHB CELLS FROM LAST STRESS PERIOD

      2 GHB CELLS

 REUSING STREAM SEGMENT DATA FROM LAST STRESS PERIOD



            AREAL INFILTRATION RATE
 READING ON UNIT   19 WITH FORMAT: (FREE)              

            1           2           3           4           5           6           7           8           9          10
 ........................................................................................................................
   1   1.0000E-10  2.0000E-10   0.000       0.000       0.000       0.000       0.000       0.000       0.000       0.000    
   2   2.0000E-10  1.0000E-10  2.0000E-10   0.000       0.000      8.0000E-10  8.0000E-10  5.0000E-10   0.000       0.000    
   3    0.000      5.0000E-10  1.0000E-10  1.0000E-10  8.0000E-10  8.0000E-10  5.0000E-10  5.0000E-10   0.000       0.000    
   4   8.0000E-10  5.0000E-10  1.0000E-10  1.0000E-10  1.0000E-10  1.0000E-10  1.0000E-10  1.0000E-10  2.0000E-10   0.000    
   5   8.0000E-10  5.0000E-10  1.0000E-10  1.0000E-10  1.0000E-10  1.0000E-10  1.0000E-10  1.0000E-10  1.0000E-10  1.0000E-10
   6   8.0000E-10  5.0000E-10  5.0000E-10  2.0000E-10  2.0000E-10  1.0000E-10  1.0000E-10  1.0000E-10  1.0000E-10  5.0000E-10
   7   8.0000E-10  5.0000E-10  5.0000E-10  2.0000E-10  2.0000E-10  1.0000E-10  1.0000E-10  2.0000E-10  2.0000E-10   0.000    
   8    0.000      5.0000E-10  5.0000E-10  2.0000E-10  2.0000E-10  1.0000E-10  1.0000E-10  2.0000E-10  5.0000E-10   0.000    
   9    0.000      5.0000E-10  5.0000E-10  2.0000E-10  2.0000E-10  1.0000E-10  1.0000E-10  2.0000E-10  5.0000E-10   0.000    
  10    0.000      5.0000E-10  5.0000E-10  2.0000E-10  2.0000E-10  1.0000E-10  1.0000E-10  2.0000E-10  5.0000E-10  8.0000E-10
  11    0.000      1.0000E-10  1.0000E-10  1.0000E-10  1.0000E-10  1.0000E-10  1.0000E-10  2.0000E-10  5.0000E-10   0.000    
  12   1.0000E-10  1.0000E-10  1.0000E-10  1.0000E-10  1.0000E-10  1.0000E-10  1.0000E-10  1.0000E-10  2.0000E-10   0.000    
  13   1.0000E-10  1.0000E-10  2.0000E-10  2.0000E-10  2.0000E-10  2.0000E-10  2.0000E-10  1.0000E-10  1.0000E-10   0.000    
  14    0.000      2.0000E-10  5.0000E-10  5.0000E-10  5.0000E-10  5.0000E-10  5.0000E-10  2.0000E-10  1.0000E-10   0.000    
  15    0.000       0.000      8.0000E-10  8.0000E-10  8.0000E-10  8.0000E-10   0.000       0.000       0.000       0.000    

                  ET RATE =  1.500000E-07

 USING ET EXTINCTION DEPTH FROM PREVIOUS STRESS PERIOD. CURRENT PERIOD IS:      31

 USING EXTINCTION WATER CONTENT FROM PREVIOUS STRESS PERIOD. CURRENT PERIOD IS:      31

 USING AIR ENTRY PRESSURE FROM PREVIOUS STRESS PERIOD. CURRENT PERIOD IS:      31

 USING ROOT PRESSURE HEAD FROM PREVIOUS STRESS PERIOD. CURRENT PERIOD IS:      31

 USING ROOT ACTIVITY FROM PREVIOUS STRESS PERIOD. CURRENT PERIOD IS:      31

 PROCESSING AG STRESS PERIOD DATA

 READING AG STRESS PERIOD DATA

 READING IRRIGATION WELL

 END PROCESSING AG STRESS PERIOD DATA OPTIONS
 
 SOLVING FOR HEAD 
                                                   Max.-Head-Change                         Max.-Flux-Residual
  Residual-Control   Outer-Iter.   Inner-Iter.     Column Row Layer    Maximum-Head-Change  Column Row Layer    Maximum-Flux-Residual          L2-NORM 
          0                 1           2             4    7     1      -0.5728473931E-01       4    7    1        -0.2994938070E+01      0.7105814070E+01
          0                 2           2             4    7     1       0.5572211872E-02       4    7    1         0.2994918715E+00      0.7105737626E+00
          0                 3           2             4    7     1      -0.3794472326E-03       4    7    1        -0.2096445611E-01      0.4974023770E-01
          0                 4           1             4    7     1       0.1509855928E-04       4    7    1         0.8574473854E-03      0.2034377823E-02

    ------------------------------------------------
       NWT REQUIRED            4 OUTER ITERATIONS 
       AND A TOTAL OF          7 INNER ITERATIONS.
    ------------------------------------------------

 NO OUTPUT CONTROL FOR STRESS PERIOD   31   TIME STEP    1
 
 SOLVING FOR HEAD 
                                                   Max.-Head-Change                         Max.-Flux-Residual
  Residual-Control   Outer-Iter.   Inner-Iter.     Column Row Layer    Maximum-Head-Change  Column Row Layer    Maximum-Flux-Residual          L2-NORM 
          0                 1           2             4    7     1      -0.5690906553E-01       4    7    1        -0.2976436282E+01      0.6982643688E+01
          0                 2           2             4    7     1       0.5535666686E-02       4    7    1         0.2976415280E+00      0.6982569722E+00
          0                 3           2             4    7     1      -0.3769586642E-03       4    7    1        -0.2083493358E-01      0.4887806224E-01
          0                 4           1             4    7     1       0.1499953688E-04       4    7    1         0.8521499021E-03      0.1999114604E-02

    ------------------------------------------------
       NWT REQUIRED            4 OUTER ITERATIONS 
       AND A TOTAL OF          7 INNER ITERATIONS.
    ------------------------------------------------

 NO OUTPUT CONTROL FOR STRESS PERIOD   31   TIME STEP    2
 
 SOLVING FOR HEAD 
                                                   Max.-Head-Change                         Max.-Flux-Residual
  Residual-Control   Outer-Iter.   Inner-Iter.     Column Row Layer    Maximum-Head-Change  Column Row Layer    Maximum-Flux-Residual          L2-NORM 
          0                 1           2             4    7     1      -0.5651573137E-01       4    7    1        -0.2956920527E+01      0.6865328825E+01
          0                 2           2             4    7     1       0.5497403901E-02       4    7    1         0.2956898064E+00      0.6865257238E+00
          0                 3           2             4    7     1      -0.3743531307E-03       4    7    1        -0.2069831439E-01      0.4805687483E-01
          0                 4           1             4    7     1       0.1489585987E-04       4    7    1         0.8465621436E-03      0.1965530343E-02

    ------------------------------------------------
       NWT REQUIRED            4 OUTER ITERATIONS 
       AND A TOTAL OF          7 INNER ITERATIONS.
    ------------------------------------------------

 NO OUTPUT CONTROL FOR STRESS PERIOD   31   TIME STEP    3
 
 SOLVING FOR HEAD 
                                                   Max.-Head-Change                         Max.-Flux-Residual
  Residual-Control   Outer-Iter.   Inner-Iter.     Column Row Layer    Maximum-Head-Change  Column Row Layer    Maximum-Flux-Residual          L2-NORM 
          0                 1           2             4    7     1      -0.5610624705E-01       4    7    1        -0.2936474415E+01      0.6753422069E+01
          0                 2           2             4    7     1       0.5457570402E-02       4    7    1         0.2936450665E+00      0.6753352730E+00
          0                 3           2             4    7     1      -0.3716406350E-03       4    7    1        -0.2055518375E-01      0.4727353867E-01
          0                 4           1             4    7     1       0.1478792717E-04       4    7    1         0.8407080873E-03      0.1933487646E-02

    ------------------------------------------------
       NWT REQUIRED            4 OUTER ITERATIONS 
       AND A TOTAL OF          7 INNER ITERATIONS.
    ------------------------------------------------

 NO OUTPUT CONTROL FOR STRESS PERIOD   31   TIME STEP    4
 
 SOLVING FOR HEAD 
                                                   Max.-Head-Change                         Max.-Flux-Residual
  Residual-Control   Outer-Iter.   Inner-Iter.     Column Row Layer    Maximum-Head-Change  Column Row Layer    Maximum-Flux-Residual          L2-NORM 
          0                 1           2             4    7     1      -0.5568257454E-01       4    7    1        -0.2915205608E+01      0.6646559597E+01
          0                 2           2             4    7     1       0.5416357014E-02       4    7    1         0.2915180731E+00      0.6646492441E+00
          0                 3           2             4    7     1      -0.3688341720E-03       4    7    1        -0.2040629523E-01      0.4652551309E-01
          0                 4           1             4    7     1       0.1467625512E-04       4    7    1         0.8346185309E-03      0.1902894430E-02

    ------------------------------------------------
       NWT REQUIRED            4 OUTER ITERATIONS 
       AND A TOTAL OF          7 INNER ITERATIONS.
    ------------------------------------------------

 NO OUTPUT CONTROL FOR STRESS PERIOD   31   TIME STEP    5
 
 SOLVING FOR HEAD 
                                                   Max.-Head-Change                         Max.-Flux-Residual
  Residual-Control   Outer-Iter.   Inner-Iter.     Column Row Layer    Maximum-Head-Change  Column Row Layer    Maximum-Flux-Residual          L2-NORM 
          0                 1           2             4    7     1      -0.5524602372E-01       4    7    1        -0.2893186482E+01      0.6544387700E+01
          0                 2           2             4    7     1       0.5373891134E-02       4    7    1         0.2893160626E+00      0.6544322540E+00
          0                 3           2             4    7     1      -0.3659424163E-03       4    7    1        -0.2025215533E-01      0.4581031994E-01
          0                 4           1             4    7     1       0.1456118946E-04       4    7    1         0.8283141947E-03      0.1873646649E-02

    ------------------------------------------------
       NWT REQUIRED            4 OUTER ITERATIONS 
       AND A TOTAL OF          7 INNER ITERATIONS.
    ------------------------------------------------

 NO OUTPUT CONTROL FOR STRESS PERIOD   31   TIME STEP    6
 
 SOLVING FOR HEAD 
                                                   Max.-Head-Change                         Max.-Flux-Residual
  Residual-Control   Outer-Iter.   Inner-Iter.     Column Row Layer    Maximum-Head-Change  Column Row Layer    Maximum-Flux-Residual          L2-NORM 
          0                 1           2             4    7     1      -0.5479821999E-01       4    7    1        -0.2870506966E+01      0.6446582017E+01
          0                 2           2             4    7     1       0.5330330852E-02       4    7    1         0.2870480266E+00      0.6446518765E+00
          0                 3           2             4    7     1      -0.3629761340E-03       4    7    1        -0.2009339353E-01      0.4512569143E-01
          0                 4           1             4    7     1       0.1444315834E-04       4    7    1         0.8218208282E-03      0.1845642401E-02

    ------------------------------------------------
       NWT REQUIRED            4 OUTER ITERATIONS 
       AND A TOTAL OF          7 INNER ITERATIONS.
    ------------------------------------------------

 NO OUTPUT CONTROL FOR STRESS PERIOD   31   TIME STEP    7
 
 SOLVING FOR HEAD 
                                                   Max.-Head-Change                         Max.-Flux-Residual
  Residual-Control   Outer-Iter.   Inner-Iter.     Column Row Layer    Maximum-Head-Change  Column Row Layer    Maximum-Flux-Residual          L2-NORM 
          0                 1           2             4    7     1      -0.5434042154E-01       4    7    1        -0.2847236664E+01      0.6352853703E+01
          0                 2           2             4    7     1       0.5285798541E-02       4    7    1         0.2847209248E+00      0.6352792354E+00
          0                 3           2             4    7     1      -0.3599436591E-03       4    7    1        -0.1993049704E-01      0.4446960577E-01
          0                 4           1             4    7     1       0.1432249333E-04       4    7    1         0.8151583606E-03      0.1818809316E-02

    ------------------------------------------------
       NWT REQUIRED            4 OUTER ITERATIONS 
       AND A TOTAL OF          7 INNER ITERATIONS.
    ------------------------------------------------

 NO OUTPUT CONTROL FOR STRESS PERIOD   31   TIME STEP    8
 
 SOLVING FOR HEAD 
                                                   Max.-Head-Change                         Max.-Flux-Residual
  Residual-Control   Outer-Iter.   Inner-Iter.     Column Row Layer    Maximum-Head-Change  Column Row Layer    Maximum-Flux-Residual          L2-NORM 
          0                 1           2             4    7     1      -0.5387406951E-01       4    7    1        -0.2823455486E+01      0.6262942318E+01
          0                 2           2             4    7     1       0.5240434740E-02       4    7    1         0.2823427467E+00      0.6263692680E+00
          0                 3           2             4    7     1      -0.3568545604E-03       4    7    1        -0.1976402507E-01      0.4384590003E-01
          0                 4           1             4    7     1       0.1419957493E-04       4    7    1         0.8083496386E-03      0.1793306486E-02

    ------------------------------------------------
       NWT REQUIRED            4 OUTER ITERATIONS 
       AND A TOTAL OF          7 INNER ITERATIONS.
    ------------------------------------------------

 NO OUTPUT CONTROL FOR STRESS PERIOD   31   TIME STEP    9
 
 SOLVING FOR HEAD 
                                                   Max.-Head-Change                         Max.-Flux-Residual
  Residual-Control   Outer-Iter.   Inner-Iter.     Column Row Layer    Maximum-Head-Change  Column Row Layer    Maximum-Flux-Residual          L2-NORM 
          0                 1           2             4    7     1      -0.5340009061E-01       4    7    1        -0.2799216131E+01      0.6176577237E+01
          0                 2           2             4    7     1       0.5194329016E-02       4    7    1         0.2799187615E+00      0.6176537437E+00
          0                 3           2             4    7     1      -0.3537149317E-03       4    7    1        -0.1959434649E-01      0.4323580247E-01
          0                 4           1             4    7     1       0.1407464652E-04       4    7    1         0.8014097921E-03      0.1768347094E-02

    ------------------------------------------------
       NWT REQUIRED            4 OUTER ITERATIONS 
       AND A TOTAL OF          7 INNER ITERATIONS.
    ------------------------------------------------

 NO OUTPUT CONTROL FOR STRESS PERIOD   31   TIME STEP   10
 
 SOLVING FOR HEAD 
                                                   Max.-Head-Change                         Max.-Flux-Residual
  Residual-Control   Outer-Iter.   Inner-Iter.     Column Row Layer    Maximum-Head-Change  Column Row Layer    Maximum-Flux-Residual          L2-NORM 
          0                 1           2             4    7     1      -0.5291989126E-01       4    7    1        -0.2774596014E+01      0.6092992652E+01
          0                 2           2             4    7     1       0.5147618287E-02       4    7    1         0.2774567096E+00      0.6092955436E+00
          0                 3           2             4    7     1      -0.3505341096E-03       4    7    1        -0.1942200317E-01      0.4265072469E-01
          0                 4           1             4    7     1       0.1394807846E-04       4    7    1         0.7943609253E-03      0.1744417439E-02

    ------------------------------------------------
       NWT REQUIRED            4 OUTER ITERATIONS 
       AND A TOTAL OF          7 INNER ITERATIONS.
    ------------------------------------------------

 NO OUTPUT CONTROL FOR STRESS PERIOD   31   TIME STEP   11
 
 SOLVING FOR HEAD 
                                                   Max.-Head-Change                         Max.-Flux-Residual
  Residual-Control   Outer-Iter.   Inner-Iter.     Column Row Layer    Maximum-Head-Change  Column Row Layer    Maximum-Flux-Residual          L2-NORM 
          0                 1           2             4    7     1      -0.5243424403E-01       4    7    1        -0.2749638720E+01      0.6012604335E+01
          0                 2           2             4    7     1       0.5100377600E-02       4    7    1         0.2749609488E+00      0.6012567351E+00
          0                 3           2             4    7     1      -0.3473171981E-03       4    7    1        -0.1924730013E-01      0.4208800867E-01
          0                 4           1             4    7     1       0.1382007441E-04       4    7    1         0.7872155516E-03      0.1772930798E-02

    ------------------------------------------------
       NWT REQUIRED            4 OUTER ITERATIONS 
       AND A TOTAL OF          7 INNER ITERATIONS.
    ------------------------------------------------

 NO OUTPUT CONTROL FOR STRESS PERIOD   31   TIME STEP   12
 
 SOLVING FOR HEAD 
                                                   Max.-Head-Change                         Max.-Flux-Residual
  Residual-Control   Outer-Iter.   Inner-Iter.     Column Row Layer    Maximum-Head-Change  Column Row Layer    Maximum-Flux-Residual          L2-NORM 
          0                 1           2             4    7     1      -0.5194427197E-01       4    7    1        -0.2724406308E+01      0.5935229345E+01
          0                 2           2             4    7     1       0.5052716346E-02       4    7    1         0.2724376843E+00      0.5935192632E+00
          0                 3           2             4    7     1      -0.3440716469E-03       4    7    1        -0.1907067177E-01      0.4154638642E-01
          0                 4           1             4    7     1       0.1369093106E-04       4    7    1         0.7799914465E-03      0.1699249529E-02

    ------------------------------------------------
       NWT REQUIRED            4 OUTER ITERATIONS 
       AND A TOTAL OF          7 INNER ITERATIONS.
    ------------------------------------------------

 NO OUTPUT CONTROL FOR STRESS PERIOD   31   TIME STEP   13
 
 SOLVING FOR HEAD 
                                                   Max.-Head-Change                         Max.-Flux-Residual
  Residual-Control   Outer-Iter.   Inner-Iter.     Column Row Layer    Maximum-Head-Change  Column Row Layer    Maximum-Flux-Residual          L2-NORM 
          0                 1           2             4    7     1      -0.5145088482E-01       4    7    1        -0.2698949668E+01      0.5860678547E+01
          0                 2           2             4    7     1       0.5004723003E-02       4    7    1         0.2698920043E+00      0.5860642164E+00
          0                 3           2             4    7     1      -0.3408034804E-03       4    7    1        -0.1889247424E-01      0.4102453144E-01
          0                 4           1             4    7     1       0.1356088788E-04       4    7    1         0.7727031607E-03      0.1677905420E-02

    ------------------------------------------------
       NWT REQUIRED            4 OUTER ITERATIONS 
       AND A TOTAL OF          7 INNER ITERATIONS.
    ------------------------------------------------

 NO OUTPUT CONTROL FOR STRESS PERIOD   31   TIME STEP   14
 
 SOLVING FOR HEAD 
                                                   Max.-Head-Change                         Max.-Flux-Residual
  Residual-Control   Outer-Iter.   Inner-Iter.     Column Row Layer    Maximum-Head-Change  Column Row Layer    Maximum-Flux-Residual          L2-NORM 
          0                 1           2             4    7     1      -0.5095479476E-01       4    7    1        -0.2673308641E+01      0.5788792795E+01
          0                 2           2             4    7     1       0.4956466839E-02       4    7    1         0.2673278922E+00      0.5788756782E+00
          0                 3           2             4    7     1      -0.3375174158E-03       4    7    1        -0.1871298641E-01      0.4052133058E-01
          0                 4           1             4    7     1       0.1343013205E-04       4    7    1         0.7653620860E-03      0.1657320032E-02

    ------------------------------------------------
       NWT REQUIRED            4 OUTER ITERATIONS 
       AND A TOTAL OF          7 INNER ITERATIONS.
    ------------------------------------------------

 NO OUTPUT CONTROL FOR STRESS PERIOD   31   TIME STEP   15
 
 SOLVING FOR HEAD 
                                                   Max.-Head-Change                         Max.-Flux-Residual
  Residual-Control   Outer-Iter.   Inner-Iter.     Column Row Layer    Maximum-Head-Change  Column Row Layer    Maximum-Flux-Residual          L2-NORM 
          0                 1           2             4    7     1      -0.5045693088E-01       4    7    1        -0.2647534810E+01      0.5719420032E+01
          0                 2           2             4    7     1       0.4908038221E-02       4    7    1         0.2647505058E+00      0.5719384409E+00
          0                 3           2             4    7     1      -0.3342196066E-03       4    7    1        -0.1853256930E-01      0.4003572601E-01
          0                 4           1             4    7     1       0.1329890915E-04       4    7    1         0.7579830185E-03      0.1637463443E-02

    ------------------------------------------------
       NWT REQUIRED            4 OUTER ITERATIONS 
       AND A TOTAL OF          7 INNER ITERATIONS.
    ------------------------------------------------

 NO OUTPUT CONTROL FOR STRESS PERIOD   31   TIME STEP   16
 
 SOLVING FOR HEAD 
                                                   Max.-Head-Change                         Max.-Flux-Residual
  Residual-Control   Outer-Iter.   Inner-Iter.     Column Row Layer    Maximum-Head-Change  Column Row Layer    Maximum-Flux-Residual          L2-NORM 
          0                 1           2             4    7     1      -0.4995788147E-01       4    7    1        -0.2621661695E+01      0.5652409798E+01
          0                 2           2             4    7     1       0.4859494362E-02       4    7    1         0.2621631963E+00      0.5652374546E+00
          0                 3           2             4    7     1      -0.3309139496E-03       4    7    1        -0.1835145756E-01      0.3956666320E-01
          0                 4           1             4    7     1       0.1316737391E-04       4    7    1         0.7505755298E-03      0.1618384748E-02

    ------------------------------------------------
       NWT REQUIRED            4 OUTER ITERATIONS 
       AND A TOTAL OF          7 INNER ITERATIONS.
    ------------------------------------------------

 NO OUTPUT CONTROL FOR STRESS PERIOD   31   TIME STEP   17
 
 SOLVING FOR HEAD 
                                                   Max.-Head-Change                         Max.-Flux-Residual
  Residual-Control   Outer-Iter.   Inner-Iter.     Column Row Layer    Maximum-Head-Change  Column Row Layer    Maximum-Flux-Residual          L2-NORM 
          0                 1           2             4    7     1      -0.4945845845E-01       4    7    1        -0.2595734450E+01      0.5587651426E+01
          0                 2           2             4    7     1       0.4810914233E-02       4    7    1         0.2595704789E+00      0.5587616622E+00
          0                 3           2             4    7     1      -0.3276058215E-03       4    7    1        -0.1816996717E-01      0.3911335158E-01
          0                 4           1             4    7     1       0.1303574023E-04       4    7    1         0.7431525651E-03      0.1599738145E-02

    ------------------------------------------------
       NWT REQUIRED            4 OUTER ITERATIONS 
       AND A TOTAL OF          7 INNER ITERATIONS.
    ------------------------------------------------

 NO OUTPUT CONTROL FOR STRESS PERIOD   31   TIME STEP   18
 
 SOLVING FOR HEAD 
                                                   Max.-Head-Change                         Max.-Flux-Residual
  Residual-Control   Outer-Iter.   Inner-Iter.     Column Row Layer    Maximum-Head-Change  Column Row Layer    Maximum-Flux-Residual          L2-NORM 
          0                 1           2             4    7     1      -0.4895928268E-01       4    7    1        -0.2569787847E+01      0.5525018684E+01
          0                 2           2             4    7     1       0.4762358221E-02       4    7    1         0.2569758300E+00      0.5524984366E+00
          0                 3           2             4    7     1      -0.3242993356E-03       4    7    1        -0.1798834157E-01      0.3867492438E-01
          0                 4           1             4    7     1       0.1290417230E-04       4    7    1         0.7357240779E-03      0.1581806330E-02

    ------------------------------------------------
       NWT REQUIRED            4 OUTER ITERATIONS 
       AND A TOTAL OF          7 INNER ITERATIONS.
    ------------------------------------------------

 NO OUTPUT CONTROL FOR STRESS PERIOD   31   TIME STEP   19
 
 SOLVING FOR HEAD 
                                                   Max.-Head-Change                         Max.-Flux-Residual
  Residual-Control   Outer-Iter.   Inner-Iter.     Column Row Layer    Maximum-Head-Change  Column Row Layer    Maximum-Flux-Residual          L2-NORM 
          0                 1           2             4    7     1      -0.4846078482E-01       4    7    1        -0.2543846752E+01      0.5464395391E+01
          0                 2           2             4    7     1       0.4713868209E-02       4    7    1         0.2543817359E+00      0.5464361504E+00
          0                 3           2             4    7     1      -0.3209973433E-03       4    7    1        -0.1780675477E-01      0.3825056099E-01
          0                 4           1             4    7     1       0.1277278315E-04       4    7    1         0.7282971678E-03      0.1564450293E-02

    ------------------------------------------------
       NWT REQUIRED            4 OUTER ITERATIONS 
       AND A TOTAL OF          7 INNER ITERATIONS.
    ------------------------------------------------

 NO OUTPUT CONTROL FOR STRESS PERIOD   31   TIME STEP   20
 
 SOLVING FOR HEAD 
                                                   Max.-Head-Change                         Max.-Flux-Residual
  Residual-Control   Outer-Iter.   Inner-Iter.     Column Row Layer    Maximum-Head-Change  Column Row Layer    Maximum-Flux-Residual          L2-NORM 
          0                 1           2             4    7     1      -0.4796363339E-01       4    7    1        -0.2517948146E+01      0.5405686975E+01
          0                 2           2             4    7     1       0.4665509220E-02       4    7    1         0.2517918941E+00      0.5405653570E+00
          0                 3           2             4    7     1      -0.3177042725E-03       4    7    1        -0.1762546559E-01      0.3783960379E-01
          0                 4           1             4    7     1       0.1264174872E-04       4    7    1         0.7208824213E-03      0.1547640095E-02

    ------------------------------------------------
       NWT REQUIRED            4 OUTER ITERATIONS 
       AND A TOTAL OF          7 INNER ITERATIONS.
    ------------------------------------------------

 NO OUTPUT CONTROL FOR STRESS PERIOD   31   TIME STEP   21
 
 SOLVING FOR HEAD 
                                                   Max.-Head-Change                         Max.-Flux-Residual
  Residual-Control   Outer-Iter.   Inner-Iter.     Column Row Layer    Maximum-Head-Change  Column Row Layer    Maximum-Flux-Residual          L2-NORM 
          0                 1           2             4    7     1      -0.4746830166E-01       4    7    1        -0.2492119364E+01      0.5348791569E+01
          0                 2           2             4    7     1       0.4617327284E-02       4    7    1         0.2492090380E+00      0.5348758705E+00
          0                 3           2             4    7     1      -0.3144232580E-03       4    7    1        -0.1744466537E-01      0.3744134351E-01
          0                 4           1             4    7     1       0.1251119413E-04       4    7    1         0.7134876882E-03      0.1531351415E-02

    ------------------------------------------------
       NWT REQUIRED            4 OUTER ITERATIONS 
       AND A TOTAL OF          7 INNER ITERATIONS.
    ------------------------------------------------

 NO OUTPUT CONTROL FOR STRESS PERIOD   31   TIME STEP   22
 
 SOLVING FOR HEAD 
                                                   Max.-Head-Change                         Max.-Flux-Residual
  Residual-Control   Outer-Iter.   Inner-Iter.     Column Row Layer    Maximum-Head-Change  Column Row Layer    Maximum-Flux-Residual          L2-NORM 
          0                 1           2             4    7     1      -0.4697510164E-01       4    7    1        -0.2466377623E+01      0.5293630117E+01
          0                 2           2             4    7     1       0.4569352746E-02       4    7    1         0.2466348889E+00      0.5293597725E+00
          0                 3           2             4    7     1      -0.3111563661E-03       4    7    1        -0.1726447461E-01      0.3705521539E-01
          0                 4           1             4    7     1       0.1238120137E-04       4    7    1         0.7061178771E-03      0.1515559881E-02

    ------------------------------------------------
       NWT REQUIRED            4 OUTER ITERATIONS 
       AND A TOTAL OF          7 INNER ITERATIONS.
    ------------------------------------------------

 NO OUTPUT CONTROL FOR STRESS PERIOD   31   TIME STEP   23
 
 SOLVING FOR HEAD 
                                                   Max.-Head-Change                         Max.-Flux-Residual
  Residual-Control   Outer-Iter.   Inner-Iter.     Column Row Layer    Maximum-Head-Change  Column Row Layer    Maximum-Flux-Residual          L2-NORM 
          0                 1           2             4    7     1      -0.4648443450E-01       4    7    1        -0.2440746425E+01      0.5240113688E+01
          0                 2           2             4    7     1       0.4521624625E-02       4    7    1         0.2440717964E+00      0.5240081803E+00
          0                 3           2             4    7     1      -0.3079062542E-03       4    7    1        -0.1708505780E-01      0.3668060501E-01
          0                 4           1             4    7     1       0.1225187658E-04       4    7    1         0.6987797342E-03      0.1500240520E-02

    ------------------------------------------------
       NWT REQUIRED            4 OUTER ITERATIONS 
       AND A TOTAL OF          7 INNER ITERATIONS.
    ------------------------------------------------

 NO OUTPUT CONTROL FOR STRESS PERIOD   31   TIME STEP   24
 
 SOLVING FOR HEAD 
                                                   Max.-Head-Change                         Max.-Flux-Residual
  Residual-Control   Outer-Iter.   Inner-Iter.     Column Row Layer    Maximum-Head-Change  Column Row Layer    Maximum-Flux-Residual          L2-NORM 
          0                 1           2             4    7     1      -0.4599693878E-01       4    7    1        -0.2415261213E+01      0.5188170175E+01
          0                 2           2             4    7     1       0.4474205028E-02       4    7    1         0.2415233047E+00      0.5188138732E+00
          0                 3           2             4    7     1      -0.3046771509E-03       4    7    1        -0.1690666302E-01      0.3631699888E-01
          0                 4           1             4    7     1       0.1212338727E-04       4    7    1         0.6914833684E-03      0.1485369182E-02

    ------------------------------------------------
       NWT REQUIRED            4 OUTER ITERATIONS 
       AND A TOTAL OF          7 INNER ITERATIONS.
    ------------------------------------------------

 NO OUTPUT CONTROL FOR STRESS PERIOD   31   TIME STEP   25
 
 SOLVING FOR HEAD 
                                                   Max.-Head-Change                         Max.-Flux-Residual
  Residual-Control   Outer-Iter.   Inner-Iter.     Column Row Layer    Maximum-Head-Change  Column Row Layer    Maximum-Flux-Residual          L2-NORM 
          0                 1           2             4    7     1      -0.4551267125E-01       4    7    1        -0.2389925808E+01      0.5137726772E+01
          0                 2           2             4    7     1       0.4427099474E-02       4    7    1         0.2389897956E+00      0.5137695835E+00
          0                 3           2             4    7     1      -0.3014694326E-03       4    7    1        -0.1672931701E-01      0.3596390168E-01
          0                 4           1             4    7     1       0.1199574956E-04       4    7    1         0.6842299122E-03      0.1470922242E-02

    ------------------------------------------------
       NWT REQUIRED            4 OUTER ITERATIONS 
       AND A TOTAL OF          7 INNER ITERATIONS.
    ------------------------------------------------

 NO OUTPUT CONTROL FOR STRESS PERIOD   31   TIME STEP   26
 
 SOLVING FOR HEAD 
                                                   Max.-Head-Change                         Max.-Flux-Residual
  Residual-Control   Outer-Iter.   Inner-Iter.     Column Row Layer    Maximum-Head-Change  Column Row Layer    Maximum-Flux-Residual          L2-NORM 
          0                 1           2             4    7     1      -0.4503206796E-01       4    7    1        -0.2364765117E+01      0.5088716806E+01
          0                 2           2             4    7     1       0.4380350374E-02       4    7    1         0.2364737596E+00      0.5088686383E+00
          0                 3           2             4    7     1      -0.2982859877E-03       4    7    1        -0.1655319412E-01      0.3562083326E-01
          0                 4           1             4    7     1       0.1186907720E-04       4    7    1         0.6770264717E-03      0.1456894813E-02

    ------------------------------------------------
       NWT REQUIRED            4 OUTER ITERATIONS 
       AND A TOTAL OF          7 INNER ITERATIONS.
    ------------------------------------------------

 NO OUTPUT CONTROL FOR STRESS PERIOD   31   TIME STEP   27
 
 SOLVING FOR HEAD 
                                                   Max.-Head-Change                         Max.-Flux-Residual
  Residual-Control   Outer-Iter.   Inner-Iter.     Column Row Layer    Maximum-Head-Change  Column Row Layer    Maximum-Flux-Residual          L2-NORM 
          0                 1           2             4    7     1      -0.4455526222E-01       4    7    1        -0.2339787110E+01      0.5041072205E+01
          0                 2           2             4    7     1       0.4333970692E-02       4    7    1         0.2339759933E+00      0.5041042300E+00
          0                 3           2             4    7     1      -0.2951276980E-03       4    7    1        -0.1637835006E-01      0.3528732645E-01
          0                 4           1             4    7     1       0.1174340575E-04       4    7    1         0.6698753432E-03      0.1443252399E-02

    ------------------------------------------------
       NWT REQUIRED            4 OUTER ITERATIONS 
       AND A TOTAL OF          7 INNER ITERATIONS.
    ------------------------------------------------

 NO OUTPUT CONTROL FOR STRESS PERIOD   31   TIME STEP   28
 
 SOLVING FOR HEAD 
                                                   Max.-Head-Change                         Max.-Flux-Residual
  Residual-Control   Outer-Iter.   Inner-Iter.     Column Row Layer    Maximum-Head-Change  Column Row Layer    Maximum-Flux-Residual          L2-NORM 
          0                 1           2             4    7     1      -0.4408276899E-01       4    7    1        -0.2315020655E+01      0.4994745427E+01
          0                 2           2             4    7     1       0.4288010517E-02       4    7    1         0.2314993834E+00      0.4994716018E+00
          0                 3           2             4    7     1      -0.2919979753E-03       4    7    1        -0.1620498695E-01      0.3496303848E-01
          0                 4           1             4    7     1       0.1161887119E-04       4    7    1         0.6627847852E-03      0.1429988898E-02

    ------------------------------------------------
       NWT REQUIRED            4 OUTER ITERATIONS 
       AND A TOTAL OF          7 INNER ITERATIONS.
    ------------------------------------------------

 NO OUTPUT CONTROL FOR STRESS PERIOD   31   TIME STEP   29
 
 SOLVING FOR HEAD 
                                                   Max.-Head-Change                         Max.-Flux-Residual
  Residual-Control   Outer-Iter.   Inner-Iter.     Column Row Layer    Maximum-Head-Change  Column Row Layer    Maximum-Flux-Residual          L2-NORM 
          0                 1           2             4    7     1      -0.4361452678E-01       4    7    1        -0.2290463177E+01      0.4949672996E+01
          0                 2           2             4    7     1       0.4242463864E-02       4    7    1         0.2290436723E+00      0.4949644089E+00
          0                 3           2             4    7     1      -0.2888964120E-03       4    7    1        -0.1603308677E-01      0.3464754014E-01
          0                 4           1             4    7     1       0.1149545739E-04       4    7    1         0.6557540664E-03      0.1417088521E-02

    ------------------------------------------------
       NWT REQUIRED            4 OUTER ITERATIONS 
       AND A TOTAL OF          7 INNER ITERATIONS.
    ------------------------------------------------

 NO OUTPUT CONTROL FOR STRESS PERIOD   31   TIME STEP   30



 STREAM LISTING     PERIOD     31   STEP       30

 LAYER ROW COL. STREAM  RCH.  FLOW INTO     FLOW TO   FLOW OUT OF   OVRLND.     DIRECT     STREAM       STREAM     STREAM     STREAM   STREAMBED  STREAMBED
                SEG.NO.  NO.  STRM. RCH.    AQUIFER    STRM. RCH.    RUNOFF     PRECIP       ET          HEAD       DEPTH      WIDTH   CONDCTNC.   GRADIENT

   1    1    1     1     1    1.9000E+01  2.1427E-01   1.8786E+01  0.000E+00  0.000E+00  0.000E+00  1.09413E+03  1.082E+00  1.166E+01  5.249E-02  1.361E+00
   1    2    2     1     2    1.8786E+01  3.3054E-01   1.8455E+01  0.000E+00  0.000E+00  0.000E+00  1.08914E+03  1.077E+00  1.158E+01  8.107E-02  1.359E+00
   1    3    3     1     3    1.8455E+01  2.8064E-01   1.8175E+01  0.000E+00  0.000E+00  0.000E+00  1.08349E+03  1.072E+00  1.149E+01  6.892E-02  1.357E+00
   1    3    4     1     4    1.8175E+01  2.5740E-01   1.7917E+01  0.000E+00  0.000E+00  0.000E+00  1.07848E+03  1.068E+00  1.140E+01  6.328E-02  1.356E+00
   1    4    5     2     1    1.5917E+01  3.0542E-01   1.5612E+01  0.000E+00  0.000E+00  0.000E+00  1.07285E+03  9.157E-01  1.200E+01  7.800E-02  1.305E+00
   1    5    6     2     2    1.5612E+01  2.3438E-01   1.5377E+01  0.000E+00  0.000E+00  0.000E+00  1.06742E+03  9.063E-01  1.200E+01  6.000E-02  1.302E+00
   1    6    6     2     3    1.5377E+01  2.3388E-01   1.5143E+01  0.000E+00  0.000E+00  0.000E+00  1.06269E+03  8.980E-01  1.200E+01  6.000E-02  1.299E+00
   1    7    6     2     4    1.5143E+01  2.3338E-01   1.4910E+01  0.000E+00  0.000E+00  0.000E+00  1.05797E+03  8.897E-01  1.200E+01  6.000E-02  1.297E+00
   1    8    6     2     5    1.4910E+01  2.3289E-01   1.4677E+01  0.000E+00  0.000E+00  0.000E+00  1.05324E+03  8.814E-01  1.200E+01  6.000E-02  1.294E+00
   1    3    5     3     1    2.0000E+00  2.8252E-01   1.7175E+00  0.000E+00  0.000E+00  0.000E+00  1.07555E+03  1.909E+00  9.636E+00  7.227E-02  1.955E+00
   1    3    6     3     2    1.7175E+00  2.4905E-01   1.4684E+00  0.000E+00  0.000E+00  0.000E+00  1.07264E+03  1.727E+00  8.909E+00  6.682E-02  1.864E+00
   1    3    7     3     3    1.4684E+00  1.9718E-01   1.2712E+00  0.000E+00  0.000E+00  0.000E+00  1.06987E+03  1.555E+00  8.218E+00  5.547E-02  1.777E+00
   1    4    8     3     4    1.2712E+00  2.2567E-01   1.0456E+00  0.000E+00  0.000E+00  0.000E+00  1.06682E+03  1.364E+00  7.455E+00  6.709E-02  1.682E+00
   1    5    8     3     5    1.0456E+00  1.5790E-01   8.8768E-01  0.000E+00  0.000E+00  0.000E+00  1.06362E+03  1.164E+00  6.655E+00  4.991E-02  1.582E+00
   1    6    8     3     6    8.8768E-01  5.5980E-02   8.3170E-01  0.000E+00  0.000E+00  0.000E+00  1.06158E+03  1.036E+00  6.145E+00  1.844E-02  1.518E+00
   1    5   10     4     1    1.0000E+01  9.0919E-02   9.9091E+00  0.000E+00  0.000E+00  0.000E+00  1.07836E+03  6.368E-01  1.000E+01  2.500E-02  1.212E+00
   1    5    9     4     2    9.9091E+00  1.8158E-01   9.7275E+00  0.000E+00  0.000E+00  0.000E+00  1.07154E+03  6.315E-01  1.000E+01  5.000E-02  1.211E+00
   1    6    8     4     3    9.7275E+00  1.2689E-01   9.6006E+00  0.000E+00  0.000E+00  0.000E+00  1.06381E+03  6.256E-01  1.000E+01  3.500E-02  1.209E+00
   1    6    8     5     1    1.0432E+01  2.2686E-01   1.0205E+01  0.000E+00  0.000E+00  0.000E+00  1.05868E+03  6.790E-01  1.542E+01  6.166E-02  1.226E+00
   1    7    7     5     2    1.0205E+01  2.7894E-01   9.9265E+00  0.000E+00  0.000E+00  0.000E+00  1.05417E+03  6.732E-01  1.519E+01  7.594E-02  1.224E+00
   1    8    7     5     3    9.9265E+00  1.9221E-01   9.7343E+00  0.000E+00  0.000E+00  0.000E+00  1.04992E+03  6.676E-01  1.497E+01  5.241E-02  1.223E+00
   1    8    6     5     4    9.7343E+00  1.3577E-01   9.5985E+00  0.000E+00  0.000E+00  0.000E+00  1.04691E+03  6.637E-01  1.482E+01  3.706E-02  1.221E+00
   1    9    6     6     1    2.4276E+01  2.5176E-01   2.4024E+01  0.000E+00  0.000E+00  0.000E+00  1.04392E+03  1.196E+00  1.200E+01  6.000E-02  1.399E+00
   1   10    7     6     2    2.4024E+01  2.5131E-01   2.3773E+01  0.000E+00  0.000E+00  0.000E+00  1.03937E+03  1.188E+00  1.200E+01  6.000E-02  1.396E+00
   1   11    7     6     3    2.3773E+01  2.5086E-01   2.3522E+01  0.000E+00  0.000E+00  0.000E+00  1.03482E+03  1.181E+00  1.200E+01  6.000E-02  1.394E+00
   1   12    7     6     4    2.3522E+01  2.5041E-01   2.3271E+01  0.000E+00  0.000E+00  0.000E+00  1.03026E+03  1.173E+00  1.200E+01  6.000E-02  1.391E+00
   1   13    7     6     5    2.3271E+01  6.4811E-03   2.3265E+01  0.000E+00  0.000E+00  0.000E+00  1.02708E+03  1.170E+00  1.200E+01  2.400E-02  9.002E-02
   1   14    9     7     1    1.5000E+02  1.3482E+00   1.4865E+02  0.000E+00  0.000E+00  0.000E+00  1.03987E+03  2.288E+00  5.529E+01  5.593E-01  8.035E-01
   1   13    8     7     2    1.4865E+02  1.9053E+00   1.4675E+02  0.000E+00  0.000E+00  0.000E+00  1.03478E+03  2.279E+00  5.526E+01  6.148E-01  1.033E+00
   1   13    7     7     3    1.4675E+02  1.6084E+00   1.4514E+02  0.000E+00  0.000E+00  0.000E+00  1.02969E+03  2.270E+00  5.521E+01  5.584E-01  9.601E-01
   1   13    6     8     1    1.6840E+02  1.0501E+00   1.6735E+02  0.000E+00  0.000E+00  0.000E+00  1.02481E+03  2.938E+00  4.261E+01  4.342E-01  8.062E-01
   1   13    5     8     2    1.6735E+02  2.9586E-01   1.6706E+02  0.000E+00  0.000E+00  0.000E+00  1.01856E+03  2.934E+00  4.254E+01  4.335E-01  2.275E-01
   1   13    4     8     3    1.6706E+02 -2.0347E+00   1.6909E+02  0.000E+00  0.000E+00  0.000E+00  1.01231E+03  2.940E+00  4.262E+01  4.344E+00 -1.561E-01
   1   13    3     8     4    1.6909E+02 -3.4514E+00   1.7254E+02  0.000E+00  0.000E+00  0.000E+00  1.00608E+03  2.958E+00  4.288E+01  4.370E+00 -2.633E-01
   1   13    2     8     5    1.7254E+02 -2.5305E+00   1.7507E+02  0.000E+00  0.000E+00  0.000E+00  9.99852E+02  2.977E+00  4.316E+01  4.399E+00 -1.918E-01
   1   13    1     8     6    1.7507E+02 -1.9715E+00   1.7705E+02  0.000E+00  0.000E+00  0.000E+00  9.94866E+02  2.991E+00  4.337E+01  2.652E+00 -2.478E-01





UNSATURATED ZONE PACKAGE VOLUMETRIC BUDGET FOR  TIME STEP    30 STRESS PERIOD   31
  ------------------------------------------------------------------------------



     CUMULATIVE VOLUMES      L**3       RATES FOR THIS TIME STEP      L**3/T
     ------------------                 ------------------------

           IN:                                      IN:
           ---                                      ---
        INFILTRATION =  1107147737.2137          INFILTRATION =          23.3175

          OUT:                                     OUT:
          ----                                     ----
              UZF ET =   963037452.0016                UZF ET =          23.3175
        UZF RECHARGE =   144037931.5316          UZF RECHARGE =       0.0000E+00

            IN - OUT =       72353.6805              IN - OUT =       0.0000E+00

          STORAGE:                                 STORAGE:
          --------                                 --------
      STORAGE CHANGE =       72339.3546        STORAGE CHANGE =       8.5026E-15

 PERCENT DISCREPANCY IS DIFFERENCE BETWEEN IN-OUT MINUS CHANGE IN STORAGE
 DIVIDED BY THE AVERAGE OF IN AND OUT TIMES 100

 PERCENT DISCREPANCY =           0.00     PERCENT DISCREPANCY =           0.00






1
  VOLUMETRIC BUDGET FOR AGRICULTURAL FIELDS AT  END OF TIME STEP   30, STRESS PERIOD  31
  ------------------------------------------------------------------------------

     CUMULATIVE VOLUMES      L**3       RATES FOR THIS TIME STEP      L**3/T
     ------------------                 ------------------------

           IN:                                      IN:
           ---                                      ---
               AG WELLS  =  1040204928.0000                 AG WELLS  =          22.4700
      DIVERSION SEGMENTS =           0.0000        DIVERSION SEGMENTS =           0.0000
           GW IRRIGATION =           0.0000             GW IRRIGATION =           0.0000
           SW IRRIGATION =           0.0000             SW IRRIGATION =           0.0000
        SYSTEM LOSSES GW =           0.0000          SYSTEM LOSSES GW =           0.0000
        SYSTEM LOSSES SW =           0.0000          SYSTEM LOSSES SW =           0.0000

                TOTAL IN =  1040204928.0000                  TOTAL IN =          22.4700

          OUT:                                     OUT:
          ----                                     ----
               AG WELLS  =           0.0000                 AG WELLS  =           0.0000
      DIVERSION SEGMENTS =           0.0000        DIVERSION SEGMENTS =           0.0000
           GW IRRIGATION =  1040204928.0000             GW IRRIGATION =          22.4700
           SW IRRIGATION =           0.0000             SW IRRIGATION =           0.0000
        SYSTEM LOSSES GW =           0.0000          SYSTEM LOSSES GW =           0.0000
        SYSTEM LOSSES SW =           0.0000          SYSTEM LOSSES SW =           0.0000

               TOTAL OUT =  1040204928.0000                 TOTAL OUT =          22.4700

                IN - OUT =           0.0000                  IN - OUT =           0.0000

     PERCENT DISCREPANCY =           0.00         PERCENT DISCREPANCY =           0.00



1
  VOLUMETRIC BUDGET FOR ENTIRE MODEL AT END OF TIME STEP   30, STRESS PERIOD  31
  ------------------------------------------------------------------------------

     CUMULATIVE VOLUMES      L**3       RATES FOR THIS TIME STEP      L**3/T
     ------------------                 ------------------------

           IN:                                      IN:
           ---                                      ---
             STORAGE     =  1344134016.0000               STORAGE     =          20.5927
       CONSTANT HEAD     =           0.0000         CONSTANT HEAD     =           0.0000
     HEAD DEP BOUNDS     =    22561204.0000       HEAD DEP BOUNDS     =           0.2866
      STREAM LEAKAGE     =   971990528.0000        STREAM LEAKAGE     =          11.9431
        UZF RECHARGE     =   144037952.0000          UZF RECHARGE     =           0.0000
               GW ET     =           0.0000                 GW ET     =           0.0000
     SURFACE LEAKAGE     =           0.0000       SURFACE LEAKAGE     =           0.0000
           AG WELLS      =           0.0000             AG WELLS      =           0.0000

                TOTAL IN =  2482723584.0000                  TOTAL IN =          32.8224

          OUT:                                     OUT:
          ----                                     ----
             STORAGE     =   587632448.0000               STORAGE     =       7.5168E-02
       CONSTANT HEAD     =           0.0000         CONSTANT HEAD     =           0.0000
     HEAD DEP BOUNDS     =    23150674.0000       HEAD DEP BOUNDS     =           0.2892
      STREAM LEAKAGE     =   814200960.0000        STREAM LEAKAGE     =           9.9881
        UZF RECHARGE     =           0.0000          UZF RECHARGE     =           0.0000
               GW ET     =    17516984.0000                 GW ET     =           0.0000
     SURFACE LEAKAGE     =           0.0000       SURFACE LEAKAGE     =           0.0000
           AG WELLS      =  1040204928.0000             AG WELLS      =          22.4700

               TOTAL OUT =  2482705920.0000                 TOTAL OUT =          32.8225

                IN - OUT =       17664.0000                  IN - OUT =      -6.8665E-05

     PERCENT DISCREPANCY =           0.00         PERCENT DISCREPANCY =          -0.00






         TIME SUMMARY AT END OF TIME STEP   30 IN STRESS PERIOD   31
                    SECONDS     MINUTES      HOURS       DAYS        YEARS
                    -----------------------------------------------------------
   TIME STEP LENGTH  87667.      1461.1      24.352      1.0147     2.77799E-03
 STRESS PERIOD TIME 2.63000E+06  43833.      730.56      30.440     8.33397E-02
         TOTAL TIME 7.89864E+07 1.31644E+06  21941.      914.20      2.5029    
1
1
                            STRESS PERIOD NO.   32, LENGTH =   2630000.    
                            -----------------------------------------------

                              NUMBER OF TIME STEPS =    30

                               MULTIPLIER FOR DELT =     1.000

                            INITIAL TIME STEP SIZE =   87666.66    

 REUSING NON-PARAMETER GHB CELLS FROM LAST STRESS PERIOD

      2 GHB CELLS

 REUSING STREAM SEGMENT DATA FROM LAST STRESS PERIOD



            AREAL INFILTRATION RATE
 READING ON UNIT   19 WITH FORMAT: (FREE)              

            1           2           3           4           5           6           7           8           9          10
 ........................................................................................................................
   1   1.0000E-10  2.0000E-10   0.000       0.000       0.000       0.000       0.000       0.000       0.000       0.000    
   2   2.0000E-10  1.0000E-10  2.0000E-10   0.000       0.000      8.0000E-10  8.0000E-10  5.0000E-10   0.000       0.000    
   3    0.000      5.0000E-10  1.0000E-10  1.0000E-10  8.0000E-10  8.0000E-10  5.0000E-10  5.0000E-10   0.000       0.000    
   4   8.0000E-10  5.0000E-10  1.0000E-10  1.0000E-10  1.0000E-10  1.0000E-10  1.0000E-10  1.0000E-10  2.0000E-10   0.000    
   5   8.0000E-10  5.0000E-10  1.0000E-10  1.0000E-10  1.0000E-10  1.0000E-10  1.0000E-10  1.0000E-10  1.0000E-10  1.0000E-10
   6   8.0000E-10  5.0000E-10  5.0000E-10  2.0000E-10  2.0000E-10  1.0000E-10  1.0000E-10  1.0000E-10  1.0000E-10  5.0000E-10
   7   8.0000E-10  5.0000E-10  5.0000E-10  2.0000E-10  2.0000E-10  1.0000E-10  1.0000E-10  2.0000E-10  2.0000E-10   0.000    
   8    0.000      5.0000E-10  5.0000E-10  2.0000E-10  2.0000E-10  1.0000E-10  1.0000E-10  2.0000E-10  5.0000E-10   0.000    
   9    0.000      5.0000E-10  5.0000E-10  2.0000E-10  2.0000E-10  1.0000E-10  1.0000E-10  2.0000E-10  5.0000E-10   0.000    
  10    0.000      5.0000E-10  5.0000E-10  2.0000E-10  2.0000E-10  1.0000E-10  1.0000E-10  2.0000E-10  5.0000E-10  8.0000E-10
  11    0.000      1.0000E-10  1.0000E-10  1.0000E-10  1.0000E-10  1.0000E-10  1.0000E-10  2.0000E-10  5.0000E-10   0.000    
  12   1.0000E-10  1.0000E-10  1.0000E-10  1.0000E-10  1.0000E-10  1.0000E-10  1.0000E-10  1.0000E-10  2.0000E-10   0.000    
  13   1.0000E-10  1.0000E-10  2.0000E-10  2.0000E-10  2.0000E-10  2.0000E-10  2.0000E-10  1.0000E-10  1.0000E-10   0.000    
  14    0.000      2.0000E-10  5.0000E-10  5.0000E-10  5.0000E-10  5.0000E-10  5.0000E-10  2.0000E-10  1.0000E-10   0.000    
  15    0.000       0.000      8.0000E-10  8.0000E-10  8.0000E-10  8.0000E-10   0.000       0.000       0.000       0.000    

                  ET RATE =  4.000000E-07

 USING ET EXTINCTION DEPTH FROM PREVIOUS STRESS PERIOD. CURRENT PERIOD IS:      32

 USING EXTINCTION WATER CONTENT FROM PREVIOUS STRESS PERIOD. CURRENT PERIOD IS:      32

 USING AIR ENTRY PRESSURE FROM PREVIOUS STRESS PERIOD. CURRENT PERIOD IS:      32

 USING ROOT PRESSURE HEAD FROM PREVIOUS STRESS PERIOD. CURRENT PERIOD IS:      32

 USING ROOT ACTIVITY FROM PREVIOUS STRESS PERIOD. CURRENT PERIOD IS:      32

 PROCESSING AG STRESS PERIOD DATA

 READING AG STRESS PERIOD DATA

 READING IRRIGATION WELL

 END PROCESSING AG STRESS PERIOD DATA OPTIONS
 
 SOLVING FOR HEAD 
                                                   Max.-Head-Change                         Max.-Flux-Residual
  Residual-Control   Outer-Iter.   Inner-Iter.     Column Row Layer    Maximum-Head-Change  Column Row Layer    Maximum-Flux-Residual          L2-NORM 
          0                 1           2             4    7     1      -0.1628651592E+00       4    7    1        -0.8516140523E+01      0.1994226635E+02
          0                 2           2             6    7     1       0.1252100141E-02       6    7    1         0.6874300129E-01      0.1844741174E+00
          0                 3           2             5    6     1      -0.1203667854E-01       4    7    1        -0.6486071727E+00      0.1581339791E+01
          0                 4           2             4    7     1      -0.9015976063E-02       5    7    1        -0.4987352903E+00      0.1188536234E+01
          0                 5           2             4    7     1      -0.7411459879E-02       5    7    1        -0.4097125405E+00      0.9811421955E+00
          0                 6           2             4    7     1      -0.6113820837E-02       5    7    1        -0.3379931525E+00      0.8089891151E+00
          0                 7           2             4    7     1      -0.5069869129E-02       5    7    1        -0.2802724080E+00      0.6709573117E+00
          0                 8           2             4    7     1      -0.4220898298E-02       5    7    1        -0.2333358555E+00      0.5586338654E+00
          0                 9           2             4    7     1      -0.3525212781E-02       5    7    1        -0.1948745461E+00      0.4665840952E+00
          0                10           2             4    7     1      -0.2951709099E-02       5    7    1        -0.1631687726E+00      0.3906925569E+00
                                                   Max.-Head-Change                         Max.-Flux-Residual
  Residual-Control   Outer-Iter.   Inner-Iter.     Column Row Layer    Maximum-Head-Change  Column Row Layer    Maximum-Flux-Residual          L2-NORM 
          0                11           2             4    7     1      -0.2476594726E-02       5    7    1        -0.1369028620E+00      0.3278156784E+00
          0                12           2             4    7     1      -0.2081482526E-02       5    7    1        -0.1150600931E+00      0.2755230717E+00
          0                13           2             4    7     1      -0.1751826493E-02       5    7    1        -0.9683618144E-01      0.2318911970E+00
          0                14           2             4    7     1      -0.1476086866E-02       5    7    1        -0.8159306860E-01      0.1953940552E+00
          0                15           2             4    7     1      -0.1244951815E-02       5    7    1        -0.6881590527E-01      0.1647998250E+00
          0                16           2             4    7     1      -0.1050833413E-02       5    7    1        -0.5808516617E-01      0.1391045759E+00
          0                17           2             4    7     1      -0.8875598277E-03       5    7    1        -0.4905961985E-01      0.1174917854E+00
          0                18           2             4    7     1      -0.7500767432E-03       5    7    1        -0.4145982710E-01      0.9929268041E-01
          0                19           2             4    7     1      -0.6342002920E-03       5    7    1        -0.3505447978E-01      0.8395355205E-01
          0                20           2             4    7     1      -0.5364197199E-03       5    7    1        -0.2964949020E-01      0.7100965896E-01
                                                   Max.-Head-Change                         Max.-Flux-Residual
  Residual-Control   Outer-Iter.   Inner-Iter.     Column Row Layer    Maximum-Head-Change  Column Row Layer    Maximum-Flux-Residual          L2-NORM 
          0                21           2             4    7     1      -0.4538881967E-03       5    7    1        -0.2508746403E-01      0.6008442713E-01
          0                22           2             4    7     1      -0.3841292816E-03       5    7    1        -0.2123150760E-01      0.5084978395E-01
          0                23           2             4    7     1      -0.3251872851E-03       5    7    1        -0.1797349007E-01      0.4304720797E-01
          0                24           2             4    7     1      -0.2753444706E-03       5    7    1        -0.1521846165E-01      0.3644908001E-01
          0                25           2             4    7     1      -0.2331845321E-03       5    7    1        -0.1288812294E-01      0.3086801624E-01
          0                26           2             4    7     1      -0.1975035444E-03       5    7    1        -0.1091592189E-01      0.2614460375E-01
          0                27           2             4    7     1      -0.1672963285E-03       5    7    1        -0.9246290900E-02      0.2214580775E-01
          0                28           2             4    7     1      -0.1417397224E-03       5    7    1        -0.7833723223E-02      0.1876272116E-01
          0                29           2             4    7     1      -0.1200722427E-03       5    7    1        -0.6636132922E-02      0.1589435389E-01
          0                30           1             4    7     1      -0.1017373496E-03       5    7    1        -0.5622744665E-02      0.1346727997E-01
          0                31           1             4    7     1      -0.8622193947E-04       5    7    1        -0.4765191967E-02      0.1141343507E-01

    ------------------------------------------------
       NWT REQUIRED           31 OUTER ITERATIONS 
       AND A TOTAL OF         60 INNER ITERATIONS.
    ------------------------------------------------

 NO OUTPUT CONTROL FOR STRESS PERIOD   32   TIME STEP    1
 
 SOLVING FOR HEAD 
                                                   Max.-Head-Change                         Max.-Flux-Residual
  Residual-Control   Outer-Iter.   Inner-Iter.     Column Row Layer    Maximum-Head-Change  Column Row Layer    Maximum-Flux-Residual          L2-NORM 
          0                 1           2             4    7     1      -0.1613217692E+00       4    7    1        -0.8440425390E+01      0.1944444344E+02
          0                 2           2             6    7     1       0.1538749627E-02       6    7    1         0.8476267435E-01      0.2330701872E+00
          0                 3           2             5    7     1      -0.1222513756E-01       4    7    1        -0.6480891550E+00      0.1576404599E+01
          0                 4           2             4    7     1      -0.9016417533E-02       4    7    1        -0.4991620032E+00      0.1141938946E+01
          0                 5           2             4    7     1      -0.7411462454E-02       4    7    1        -0.4100519489E+00      0.9495927267E+00
          0                 6           2             4    7     1      -0.6113837649E-02       4    7    1        -0.3382770517E+00      0.7823910232E+00
          0                 7           2             4    7     1      -0.5069882458E-02       4    7    1        -0.2805059996E+00      0.6490781909E+00
          0                 8           2             4    7     1      -0.4220909409E-02       4    7    1        -0.2335297077E+00      0.5404769826E+00
          0                 9           2             4    7     1      -0.3525222053E-02       4    7    1        -0.1950359641E+00      0.4514651040E+00
          0                10           2             4    7     1      -0.2951716858E-02       4    7    1        -0.1633036053E+00      0.3780636497E+00
                                                   Max.-Head-Change                         Max.-Flux-Residual
  Residual-Control   Outer-Iter.   Inner-Iter.     Column Row Layer    Maximum-Head-Change  Column Row Layer    Maximum-Flux-Residual          L2-NORM 
          0                11           2             4    7     1      -0.2476601233E-02       4    7    1        -0.1370157679E+00      0.3172405201E+00
          0                12           2             4    7     1      -0.2081487993E-02       4    7    1        -0.1151548279E+00      0.2666498848E+00
          0                13           2             4    7     1      -0.1751831094E-02       4    7    1        -0.9691580162E-01      0.2244336974E+00
          0                14           2             4    7     1      -0.1476090741E-02       4    7    1        -0.8166007610E-01      0.1891179037E+00
          0                15           2             4    7     1      -0.1244955082E-02       4    7    1        -0.6887236213E-01      0.1595118858E+00
          0                16           2             4    7     1      -0.1050836172E-02       4    7    1        -0.5813277872E-01      0.1346450266E+00
          0                17           2             4    7     1      -0.8875621565E-03       4    7    1        -0.4909980434E-01      0.1137279723E+00
          0                18           2             4    7     1      -0.7500787112E-03       4    7    1        -0.4149376404E-01      0.9611403722E-01
          0                19           2             4    7     1      -0.6342019562E-03       4    7    1        -0.3508315635E-01      0.8126761322E-01
          0                20           2             4    7     1      -0.5364211269E-03       4    7    1        -0.2967373347E-01      0.6873895730E-01
                                                   Max.-Head-Change                         Max.-Flux-Residual
  Residual-Control   Outer-Iter.   Inner-Iter.     Column Row Layer    Maximum-Head-Change  Column Row Layer    Maximum-Flux-Residual          L2-NORM 
          0                21           2             4    7     1      -0.4538893873E-03       4    7    1        -0.2510796656E-01      0.5816409931E-01
          0                22           2             4    7     1      -0.3841302890E-03       4    7    1        -0.2124885323E-01      0.4922513831E-01
          0                23           2             4    7     1      -0.3251881382E-03       4    7    1        -0.1798816745E-01      0.4167248190E-01
          0                24           2             4    7     1      -0.2753451927E-03       4    7    1        -0.1523088504E-01      0.3528546904E-01
          0                25           2             4    7     1      -0.2331851438E-03       4    7    1        -0.1289864046E-01      0.2988291579E-01
          0                26           2             4    7     1      -0.1975040626E-03       4    7    1        -0.1092482757E-01      0.2531047347E-01
          0                27           2             4    7     1      -0.1672967669E-03       4    7    1        -0.9253832600E-02      0.2143943218E-01
          0                28           2             4    7     1      -0.1417400944E-03       4    7    1        -0.7840110375E-02      0.1816448579E-01
          0                29           2             4    7     1      -0.1200725577E-03       4    7    1        -0.6641543519E-02      0.1538758512E-01
          0                30           1             4    7     1      -0.1017376160E-03       4    7    1        -0.5627327227E-02      0.1303806544E-01
          0                31           1             4    7     1      -0.8622216579E-04       4    7    1        -0.4769083431E-02      0.1104981757E-01

    ------------------------------------------------
       NWT REQUIRED           31 OUTER ITERATIONS 
       AND A TOTAL OF         60 INNER ITERATIONS.
    ------------------------------------------------

 NO OUTPUT CONTROL FOR STRESS PERIOD   32   TIME STEP    2
 
 SOLVING FOR HEAD 
                                                   Max.-Head-Change                         Max.-Flux-Residual
  Residual-Control   Outer-Iter.   Inner-Iter.     Column Row Layer    Maximum-Head-Change  Column Row Layer    Maximum-Flux-Residual          L2-NORM 
          0                 1           2             4    7     1      -0.1597004071E+00       4    7    1        -0.8360243646E+01      0.1897618936E+02
          0                 2           2             6    7     1       0.1812456187E-02       6    7    1         0.1000738773E+00      0.2886475937E+00
          0                 3           2             5    7     1      -0.1219104673E-01       4    7    1        -0.6475540506E+00      0.1571270291E+01
          0                 4           2             4    7     1      -0.9016882443E-02       4    7    1        -0.4991778981E+00      0.1142432721E+01
          0                 5           2             4    7     1      -0.7411465372E-02       4    7    1        -0.4100512367E+00      0.9495439489E+00
          0                 6           2             4    7     1      -0.6113855626E-02       4    7    1        -0.3382765456E+00      0.7823958646E+00
          0                 7           2             4    7     1      -0.5069896724E-02       4    7    1        -0.2805056274E+00      0.6490777034E+00
          0                 8           2             4    7     1      -0.4220921312E-02       4    7    1        -0.2335293921E+00      0.5404770277E+00
          0                 9           2             4    7     1      -0.3525231994E-02       4    7    1        -0.1950357021E+00      0.4514650965E+00
          0                10           2             4    7     1      -0.2951725182E-02       4    7    1        -0.1633033864E+00      0.3780636479E+00
                                                   Max.-Head-Change                         Max.-Flux-Residual
  Residual-Control   Outer-Iter.   Inner-Iter.     Column Row Layer    Maximum-Head-Change  Column Row Layer    Maximum-Flux-Residual          L2-NORM 
          0                11           2             4    7     1      -0.2476608217E-02       4    7    1        -0.1370155846E+00      0.3172405182E+00
          0                12           2             4    7     1      -0.2081493863E-02       4    7    1        -0.1151546741E+00      0.2666498833E+00
          0                13           2             4    7     1      -0.1751836033E-02       4    7    1        -0.9691567236E-01      0.2244336961E+00
          0                14           2             4    7     1      -0.1476094904E-02       4    7    1        -0.8165996733E-01      0.1891179027E+00
          0                15           2             4    7     1      -0.1244958593E-02       4    7    1        -0.6887227047E-01      0.1595118850E+00
          0                16           2             4    7     1      -0.1050839135E-02       4    7    1        -0.5813270140E-01      0.1346450259E+00
          0                17           2             4    7     1      -0.8875646593E-03       4    7    1        -0.4909973910E-01      0.1137279717E+00
          0                18           2             4    7     1      -0.7500808263E-03       4    7    1        -0.4149370893E-01      0.9611403666E-01
          0                19           2             4    7     1      -0.6342037444E-03       4    7    1        -0.3508310979E-01      0.8126761276E-01
          0                20           2             4    7     1      -0.5364226397E-03       4    7    1        -0.2967369412E-01      0.6873895691E-01
                                                   Max.-Head-Change                         Max.-Flux-Residual
  Residual-Control   Outer-Iter.   Inner-Iter.     Column Row Layer    Maximum-Head-Change  Column Row Layer    Maximum-Flux-Residual          L2-NORM 
          0                21           2             4    7     1      -0.4538906672E-03       4    7    1        -0.2510793328E-01      0.5816409897E-01
          0                22           2             4    7     1      -0.3841313722E-03       4    7    1        -0.2124882507E-01      0.4922513804E-01
          0                23           2             4    7     1      -0.3251890549E-03       4    7    1        -0.1798814362E-01      0.4167248174E-01
          0                24           2             4    7     1      -0.2753459694E-03       4    7    1        -0.1523086489E-01      0.3528546886E-01
          0                25           2             4    7     1      -0.2331858015E-03       4    7    1        -0.1289862339E-01      0.2988291563E-01
          0                26           2             4    7     1      -0.1975046196E-03       4    7    1        -0.1092481310E-01      0.2531047334E-01
          0                27           2             4    7     1      -0.1672972387E-03       4    7    1        -0.9253820349E-02      0.2143943205E-01
          0                28           2             4    7     1      -0.1417404942E-03       4    7    1        -0.7840099992E-02      0.1816448570E-01
          0                29           2             4    7     1      -0.1200728959E-03       4    7    1        -0.6641534714E-02      0.1538758540E-01
          0                30           1             4    7     1      -0.1017379033E-03       4    7    1        -0.5627319792E-02      0.1303806564E-01
          0                31           1             4    7     1      -0.8622240821E-04       4    7    1        -0.4769077110E-02      0.1104981752E-01

    ------------------------------------------------
       NWT REQUIRED           31 OUTER ITERATIONS 
       AND A TOTAL OF         60 INNER ITERATIONS.
    ------------------------------------------------

 NO OUTPUT CONTROL FOR STRESS PERIOD   32   TIME STEP    3
 
 SOLVING FOR HEAD 
                                                   Max.-Head-Change                         Max.-Flux-Residual
  Residual-Control   Outer-Iter.   Inner-Iter.     Column Row Layer    Maximum-Head-Change  Column Row Layer    Maximum-Flux-Residual          L2-NORM 
          0                 1           2             4    7     1      -0.1580083397E+00       4    7    1        -0.8275994132E+01      0.1853531878E+02
          0                 2           2             5    8     1      -0.2130862862E-02       5    8    1        -0.1194757304E+00      0.3460223126E+00
          0                 3           2             5    7     1      -0.1215745586E-01       4    7    1        -0.6469898262E+00      0.1566324901E+01
          0                 4           2             4    7     1      -0.9017368154E-02       4    7    1        -0.4991951294E+00      0.1142908031E+01
          0                 5           2             4    7     1      -0.7411468861E-02       4    7    1        -0.4100504679E+00      0.9494970540E+00
          0                 6           2             4    7     1      -0.6113874752E-02       4    7    1        -0.3382760524E+00      0.7824005194E+00
          0                 7           2             4    7     1      -0.5069911916E-02       4    7    1        -0.2805052621E+00      0.6490772366E+00
          0                 8           2             4    7     1      -0.4220933987E-02       4    7    1        -0.2335290826E+00      0.5404770722E+00
          0                 9           2             4    7     1      -0.3525242579E-02       4    7    1        -0.1950354451E+00      0.4514650903E+00
          0                10           2             4    7     1      -0.2951734045E-02       4    7    1        -0.1633031716E+00      0.3780636471E+00
                                                   Max.-Head-Change                         Max.-Flux-Residual
  Residual-Control   Outer-Iter.   Inner-Iter.     Column Row Layer    Maximum-Head-Change  Column Row Layer    Maximum-Flux-Residual          L2-NORM 
          0                11           2             4    7     1      -0.2476615654E-02       4    7    1        -0.1370154047E+00      0.3172405171E+00
          0                12           2             4    7     1      -0.2081500113E-02       4    7    1        -0.1151545232E+00      0.2666498824E+00
          0                13           2             4    7     1      -0.1751841294E-02       4    7    1        -0.9691554553E-01      0.2244336954E+00
          0                14           2             4    7     1      -0.1476099336E-02       4    7    1        -0.8165986060E-01      0.1891179020E+00
          0                15           2             4    7     1      -0.1244962331E-02       4    7    1        -0.6887218054E-01      0.1595118844E+00
          0                16           2             4    7     1      -0.1050842290E-02       4    7    1        -0.5813262556E-01      0.1346450254E+00
          0                17           2             4    7     1      -0.8875673245E-03       4    7    1        -0.4909967511E-01      0.1137279713E+00
          0                18           2             4    7     1      -0.7500830788E-03       4    7    1        -0.4149365489E-01      0.9611403638E-01
          0                19           2             4    7     1      -0.6342056486E-03       4    7    1        -0.3508306411E-01      0.8126761250E-01
          0                20           2             4    7     1      -0.5364242508E-03       4    7    1        -0.2967365550E-01      0.6873895669E-01
                                                   Max.-Head-Change                         Max.-Flux-Residual
  Residual-Control   Outer-Iter.   Inner-Iter.     Column Row Layer    Maximum-Head-Change  Column Row Layer    Maximum-Flux-Residual          L2-NORM 
          0                21           2             4    7     1      -0.4538920295E-03       4    7    1        -0.2510790060E-01      0.5816409880E-01
          0                22           2             4    7     1      -0.3841325260E-03       4    7    1        -0.2124879746E-01      0.4922513790E-01
          0                23           2             4    7     1      -0.3251900314E-03       4    7    1        -0.1798812023E-01      0.4167248153E-01
          0                24           2             4    7     1      -0.2753467957E-03       4    7    1        -0.1523084508E-01      0.3528546874E-01
          0                25           2             4    7     1      -0.2331865022E-03       4    7    1        -0.1289860665E-01      0.2988291557E-01
          0                26           2             4    7     1      -0.1975052122E-03       4    7    1        -0.1092479891E-01      0.2531047328E-01
          0                27           2             4    7     1      -0.1672977412E-03       4    7    1        -0.9253808345E-02      0.2143943200E-01
          0                28           2             4    7     1      -0.1417409195E-03       4    7    1        -0.7840089817E-02      0.1816448566E-01
          0                29           2             4    7     1      -0.1200732568E-03       4    7    1        -0.6641526114E-02      0.1538758498E-01
          0                30           1             4    7     1      -0.1017382084E-03       4    7    1        -0.5627312488E-02      0.1303806538E-01
          0                31           1             4    7     1      -0.8622266779E-04       4    7    1        -0.4769070945E-02      0.1104981751E-01

    ------------------------------------------------
       NWT REQUIRED           31 OUTER ITERATIONS 
       AND A TOTAL OF         60 INNER ITERATIONS.
    ------------------------------------------------

 NO OUTPUT CONTROL FOR STRESS PERIOD   32   TIME STEP    4
 
 SOLVING FOR HEAD 
                                                   Max.-Head-Change                         Max.-Flux-Residual
  Residual-Control   Outer-Iter.   Inner-Iter.     Column Row Layer    Maximum-Head-Change  Column Row Layer    Maximum-Flux-Residual          L2-NORM 
          0                 1           2             4    7     1      -0.1562528728E+00       4    7    1        -0.8188079540E+01      0.1811982610E+02
          0                 2           2             5    8     1      -0.2654151574E-02       5    8    1        -0.1482264591E+00      0.4030515279E+00
          0                 3           2             5    7     1      -0.1212439341E-01       4    7    1        -0.6463993102E+00      0.1561558241E+01
          0                 4           2             4    7     1      -0.9017872551E-02       4    7    1        -0.4992135790E+00      0.1143365798E+01
          0                 5           2             4    7     1      -0.7411472891E-02       4    7    1        -0.4100496469E+00      0.9494519454E+00
          0                 6           2             4    7     1      -0.6113894933E-02       4    7    1        -0.3382755714E+00      0.7824049970E+00
          0                 7           2             4    7     1      -0.5069927957E-02       4    7    1        -0.2805049034E+00      0.6490767892E+00
          0                 8           2             4    7     1      -0.4220947371E-02       4    7    1        -0.2335287788E+00      0.5404771163E+00
          0                 9           2             4    7     1      -0.3525253756E-02       4    7    1        -0.1950351928E+00      0.4514650854E+00
          0                10           2             4    7     1      -0.2951743404E-02       4    7    1        -0.1633029608E+00      0.3780636472E+00
                                                   Max.-Head-Change                         Max.-Flux-Residual
  Residual-Control   Outer-Iter.   Inner-Iter.     Column Row Layer    Maximum-Head-Change  Column Row Layer    Maximum-Flux-Residual          L2-NORM 
          0                11           2             4    7     1      -0.2476623505E-02       4    7    1        -0.1370152282E+00      0.3172405168E+00
          0                12           2             4    7     1      -0.2081506712E-02       4    7    1        -0.1151543751E+00      0.2666498822E+00
          0                13           2             4    7     1      -0.1751846848E-02       4    7    1        -0.9691542107E-01      0.2244336952E+00
          0                14           2             4    7     1      -0.1476104016E-02       4    7    1        -0.8165975584E-01      0.1891179019E+00
          0                15           2             4    7     1      -0.1244966278E-02       4    7    1        -0.6887209227E-01      0.1595118843E+00
          0                16           2             4    7     1      -0.1050845622E-02       4    7    1        -0.5813255113E-01      0.1346450253E+00
          0                17           2             4    7     1      -0.8875701387E-03       4    7    1        -0.4909961228E-01      0.1137279712E+00
          0                18           2             4    7     1      -0.7500854566E-03       4    7    1        -0.4149360182E-01      0.9611403630E-01
          0                19           2             4    7     1      -0.6342076594E-03       4    7    1        -0.3508301928E-01      0.8126761249E-01
          0                20           2             4    7     1      -0.5364259512E-03       4    7    1        -0.2967361761E-01      0.6873895668E-01
                                                   Max.-Head-Change                         Max.-Flux-Residual
  Residual-Control   Outer-Iter.   Inner-Iter.     Column Row Layer    Maximum-Head-Change  Column Row Layer    Maximum-Flux-Residual          L2-NORM 
          0                21           2             4    7     1      -0.4538934693E-03       4    7    1        -0.2510786857E-01      0.5816409875E-01
          0                22           2             4    7     1      -0.3841337435E-03       4    7    1        -0.2124877032E-01      0.4922513789E-01
          0                23           2             4    7     1      -0.3251910623E-03       4    7    1        -0.1798809729E-01      0.4167248156E-01
          0                24           2             4    7     1      -0.2753476692E-03       4    7    1        -0.1523082566E-01      0.3528546871E-01
          0                25           2             4    7     1      -0.2331872408E-03       4    7    1        -0.1289859018E-01      0.2988291564E-01
          0                26           2             4    7     1      -0.1975058387E-03       4    7    1        -0.1092478500E-01      0.2531047332E-01
          0                27           2             4    7     1      -0.1672982716E-03       4    7    1        -0.9253796547E-02      0.2143943198E-01
          0                28           2             4    7     1      -0.1417413690E-03       4    7    1        -0.7840079831E-02      0.1816448561E-01
          0                29           2             4    7     1      -0.1200736373E-03       4    7    1        -0.6641517649E-02      0.1538758496E-01
          0                30           1             4    7     1      -0.1017385311E-03       4    7    1        -0.5627305330E-02      0.1303806530E-01
          0                31           1             4    7     1      -0.8622294134E-04       4    7    1        -0.4769064877E-02      0.1104981751E-01

    ------------------------------------------------
       NWT REQUIRED           31 OUTER ITERATIONS 
       AND A TOTAL OF         60 INNER ITERATIONS.
    ------------------------------------------------

 NO OUTPUT CONTROL FOR STRESS PERIOD   32   TIME STEP    5
 
 SOLVING FOR HEAD 
                                                   Max.-Head-Change                         Max.-Flux-Residual
  Residual-Control   Outer-Iter.   Inner-Iter.     Column Row Layer    Maximum-Head-Change  Column Row Layer    Maximum-Flux-Residual          L2-NORM 
          0                 1           2             4    7     1      -0.1544408772E+00       4    7    1        -0.8096878607E+01      0.1772788889E+02
          0                 2           2             5    8     1      -0.3149549892E-02       5    8    1        -0.1754198913E+00      0.4588145880E+00
          0                 3           2             5    7     1      -0.1209188601E-01       4    7    1        -0.6457851630E+00      0.1556960929E+01
          0                 4           2             4    7     1      -0.9018393647E-02       4    7    1        -0.4992331356E+00      0.1143806887E+01
          0                 5           2             4    7     1      -0.7411477434E-02       4    7    1        -0.4100487784E+00      0.9494085328E+00
          0                 6           2             4    7     1      -0.6113916079E-02       4    7    1        -0.3382751021E+00      0.7824093064E+00
          0                 7           2             4    7     1      -0.5069944777E-02       4    7    1        -0.2805045512E+00      0.6490763604E+00
          0                 8           2             4    7     1      -0.4220961404E-02       4    7    1        -0.2335284806E+00      0.5404771599E+00
          0                 9           2             4    7     1      -0.3525265474E-02       4    7    1        -0.1950349452E+00      0.4514650817E+00
          0                10           2             4    7     1      -0.2951753216E-02       4    7    1        -0.1633027539E+00      0.3780636482E+00
                                                   Max.-Head-Change                         Max.-Flux-Residual
  Residual-Control   Outer-Iter.   Inner-Iter.     Column Row Layer    Maximum-Head-Change  Column Row Layer    Maximum-Flux-Residual          L2-NORM 
          0                11           2             4    7     1      -0.2476631738E-02       4    7    1        -0.1370150550E+00      0.3172405172E+00
          0                12           2             4    7     1      -0.2081513632E-02       4    7    1        -0.1151542298E+00      0.2666498825E+00
          0                13           2             4    7     1      -0.1751852671E-02       4    7    1        -0.9691529889E-01      0.2244336955E+00
          0                14           2             4    7     1      -0.1476108922E-02       4    7    1        -0.8165965302E-01      0.1891179021E+00
          0                15           2             4    7     1      -0.1244970417E-02       4    7    1        -0.6887200566E-01      0.1595118845E+00
          0                16           2             4    7     1      -0.1050849115E-02       4    7    1        -0.5813247808E-01      0.1346450255E+00
          0                17           2             4    7     1      -0.8875730891E-03       4    7    1        -0.4909955062E-01      0.1137279714E+00
          0                18           2             4    7     1      -0.7500879499E-03       4    7    1        -0.4149354975E-01      0.9611403643E-01
          0                19           2             4    7     1      -0.6342097678E-03       4    7    1        -0.3508297529E-01      0.8126761256E-01
          0                20           2             4    7     1      -0.5364277342E-03       4    7    1        -0.2967358040E-01      0.6873895674E-01
                                                   Max.-Head-Change                         Max.-Flux-Residual
  Residual-Control   Outer-Iter.   Inner-Iter.     Column Row Layer    Maximum-Head-Change  Column Row Layer    Maximum-Flux-Residual          L2-NORM 
          0                21           2             4    7     1      -0.4538949782E-03       4    7    1        -0.2510783711E-01      0.5816409884E-01
          0                22           2             4    7     1      -0.3841350204E-03       4    7    1        -0.2124874371E-01      0.4922513791E-01
          0                23           2             4    7     1      -0.3251921436E-03       4    7    1        -0.1798807477E-01      0.4167248156E-01
          0                24           2             4    7     1      -0.2753485842E-03       4    7    1        -0.1523080659E-01      0.3528546875E-01
          0                25           2             4    7     1      -0.2331880159E-03       4    7    1        -0.1289857405E-01      0.2988291557E-01
          0                26           2             4    7     1      -0.1975064954E-03       4    7    1        -0.1092477135E-01      0.2531047328E-01
          0                27           2             4    7     1      -0.1672988279E-03       4    7    1        -0.9253784986E-02      0.2143943202E-01
          0                28           2             4    7     1      -0.1417418402E-03       4    7    1        -0.7840070033E-02      0.1816448565E-01
          0                29           2             4    7     1      -0.1200740363E-03       4    7    1        -0.6641509348E-02      0.1538758498E-01
          0                30           1             4    7     1      -0.1017388694E-03       4    7    1        -0.5627298307E-02      0.1303806533E-01
          0                31           1             4    7     1      -0.8622322779E-04       4    7    1        -0.4769058919E-02      0.1104981748E-01

    ------------------------------------------------
       NWT REQUIRED           31 OUTER ITERATIONS 
       AND A TOTAL OF         60 INNER ITERATIONS.
    ------------------------------------------------

 NO OUTPUT CONTROL FOR STRESS PERIOD   32   TIME STEP    6
 
 SOLVING FOR HEAD 
                                                   Max.-Head-Change                         Max.-Flux-Residual
  Residual-Control   Outer-Iter.   Inner-Iter.     Column Row Layer    Maximum-Head-Change  Column Row Layer    Maximum-Flux-Residual          L2-NORM 
          0                 1           2             4    7     1      -0.1525783982E+00       4    7    1        -0.8002725655E+01      0.1735782874E+02
          0                 2           2             5    8     1      -0.3618945283E-02       5    8    1        -0.2011624570E+00      0.5129091292E+00
          0                 3           2             4    7     1      -0.1234521597E-01       4    7    1        -0.6448868827E+00      0.1552419654E+01
          0                 4           2             4    7     1      -0.8801508593E-02       5    8    1        -0.4613771227E+00      0.1128144184E+01
          0                 5           2             4    7     1      -0.7341898157E-02       4    7    1        -0.3832985355E+00      0.9385998213E+00
          0                 6           2             4    7     1      -0.6047189084E-02       5    6    1        -0.3157119051E+00      0.7733240967E+00
          0                 7           2             4    7     1      -0.5017342884E-02       4    7    1        -0.2619376226E+00      0.6416014272E+00
          0                 8           2             4    7     1      -0.4178026034E-02       4    7    1        -0.2181198250E+00      0.5342747673E+00
          0                 9           2             4    7     1      -0.3490072008E-02       4    7    1        -0.1822041969E+00      0.4463008064E+00
          0                10           2             4    7     1      -0.2922726120E-02       4    7    1        -0.1525850879E+00      0.3737501992E+00
                                                   Max.-Head-Change                         Max.-Flux-Residual
  Residual-Control   Outer-Iter.   Inner-Iter.     Column Row Layer    Maximum-Head-Change  Column Row Layer    Maximum-Flux-Residual          L2-NORM 
          0                11           2             4    7     1      -0.2452576246E-02       4    7    1        -0.1280402389E+00      0.3136287199E+00
          0                12           2             4    7     1      -0.2061504213E-02       4    7    1        -0.1076237631E+00      0.2636195014E+00
          0                13           2             4    7     1      -0.1735155268E-02       4    7    1        -0.9058624966E-01      0.2218868934E+00
          0                14           2             4    7     1      -0.1462141229E-02       4    7    1        -0.7633316191E-01      0.1869746074E+00
          0                15           2             4    7     1      -0.1233261617E-02       4    7    1        -0.6438417527E-01      0.1577061106E+00
          0                16           2             4    7     1      -0.1041015241E-02       4    7    1        -0.5434767931E-01      0.1331221717E+00
          0                17           2             4    7     1      -0.8793019782E-03       4    7    1        -0.4590520822E-01      0.1124427235E+00
          0                18           2             4    7     1      -0.7431237712E-03       4    7    1        -0.3879583122E-01      0.9502862824E-01
          0                19           2             4    7     1      -0.6283405263E-03       4    7    1        -0.3280340876E-01      0.8035046203E-01
          0                20           2             4    7     1      -0.5314753125E-03       4    7    1        -0.2774642264E-01      0.6796360435E-01
                                                   Max.-Head-Change                         Max.-Flux-Residual
  Residual-Control   Outer-Iter.   Inner-Iter.     Column Row Layer    Maximum-Head-Change  Column Row Layer    Maximum-Flux-Residual          L2-NORM 
          0                21           2             4    7     1      -0.4497155751E-03       4    7    1        -0.2347803944E-01      0.5750839365E-01
          0                22           2             4    7     1      -0.3806024705E-03       4    7    1        -0.1986989170E-01      0.4867039953E-01
          0                23           2             4    7     1      -0.3222080721E-03       4    7    1        -0.1682132924E-01      0.4120308414E-01
          0                24           2             4    7     1      -0.2728253682E-03       4    7    1        -0.1424323513E-01      0.3488815960E-01
          0                25           2             4    7     1      -0.2310540719E-03       4    7    1        -0.1206250536E-01      0.2954656090E-01
          0                26           2             4    7     1      -0.1957006958E-03       4    7    1        -0.1021683223E-01      0.2502566816E-01
          0                27           2             4    7     1      -0.1657702815E-03       4    7    1        -0.8654272508E-02      0.2119824894E-01
          0                28           2             4    7     1      -0.1404489584E-03       4    7    1        -0.7332336939E-02      0.1796022767E-01
          0                29           2             4    7     1      -0.1189778169E-03       4    7    1        -0.6211405544E-02      0.1521455690E-01
          0                30           1             4    7     1      -0.1008116587E-03       4    7    1        -0.5263015456E-02      0.1289151838E-01
          0                31           1             4    7     1      -0.8543871387E-04       4    7    1        -0.4460449155E-02      0.1092566865E-01

    ------------------------------------------------
       NWT REQUIRED           31 OUTER ITERATIONS 
       AND A TOTAL OF         60 INNER ITERATIONS.
    ------------------------------------------------

 NO OUTPUT CONTROL FOR STRESS PERIOD   32   TIME STEP    7
 
 SOLVING FOR HEAD 
                                                   Max.-Head-Change                         Max.-Flux-Residual
  Residual-Control   Outer-Iter.   Inner-Iter.     Column Row Layer    Maximum-Head-Change  Column Row Layer    Maximum-Flux-Residual          L2-NORM 
          0                 1           2             4    7     1      -0.1506713975E+00       4    7    1        -0.7905950269E+01      0.1700811387E+02
          0                 2           2             5    8     1      -0.4064130279E-02       5    8    1        -0.2255551502E+00      0.5651728827E+00
          0                 3           2             4    7     1      -0.1232618372E-01       4    7    1        -0.6439202409E+00      0.1548010731E+01
          0                 4           2             4    7     1      -0.8803447905E-02       5    8    1        -0.4616188110E+00      0.1128588563E+01
          0                 5           2             4    7     1      -0.7341733777E-02       4    7    1        -0.3832888916E+00      0.9385554820E+00
          0                 6           2             4    7     1      -0.6047229897E-02       5    6    1        -0.3157142472E+00      0.7733285239E+00
          0                 7           2             4    7     1      -0.5017359010E-02       4    7    1        -0.2619375260E+00      0.6416009814E+00
          0                 8           2             4    7     1      -0.4178041242E-02       4    7    1        -0.2181198344E+00      0.5342748093E+00
          0                 9           2             4    7     1      -0.3490084533E-02       4    7    1        -0.1822041957E+00      0.4463008000E+00
          0                10           2             4    7     1      -0.2922736627E-02       4    7    1        -0.1525850879E+00      0.3737501980E+00
                                                   Max.-Head-Change                         Max.-Flux-Residual
  Residual-Control   Outer-Iter.   Inner-Iter.     Column Row Layer    Maximum-Head-Change  Column Row Layer    Maximum-Flux-Residual          L2-NORM 
          0                11           2             4    7     1      -0.2452585061E-02       4    7    1        -0.1280402387E+00      0.3136287185E+00
          0                12           2             4    7     1      -0.2061511623E-02       4    7    1        -0.1076237630E+00      0.2636195003E+00
          0                13           2             4    7     1      -0.1735161504E-02       4    7    1        -0.9058624958E-01      0.2218868925E+00
          0                14           2             4    7     1      -0.1462146485E-02       4    7    1        -0.7633316185E-01      0.1869746066E+00
          0                15           2             4    7     1      -0.1233266049E-02       4    7    1        -0.6438417519E-01      0.1577061099E+00
          0                16           2             4    7     1      -0.1041018983E-02       4    7    1        -0.5434767928E-01      0.1331221711E+00
          0                17           2             4    7     1      -0.8793051383E-03       4    7    1        -0.4590520816E-01      0.1124427230E+00
          0                18           2             4    7     1      -0.7431264423E-03       4    7    1        -0.3879583119E-01      0.9502862783E-01
          0                19           2             4    7     1      -0.6283427849E-03       4    7    1        -0.3280340873E-01      0.8035046167E-01
          0                20           2             4    7     1      -0.5314772226E-03       4    7    1        -0.2774642261E-01      0.6796360406E-01
                                                   Max.-Head-Change                         Max.-Flux-Residual
  Residual-Control   Outer-Iter.   Inner-Iter.     Column Row Layer    Maximum-Head-Change  Column Row Layer    Maximum-Flux-Residual          L2-NORM 
          0                21           2             4    7     1      -0.4497171917E-03       4    7    1        -0.2347803942E-01      0.5750839340E-01
          0                22           2             4    7     1      -0.3806038385E-03       4    7    1        -0.1986989167E-01      0.4867039931E-01
          0                23           2             4    7     1      -0.3222092299E-03       4    7    1        -0.1682132922E-01      0.4120308396E-01
          0                24           2             4    7     1      -0.2728263486E-03       4    7    1        -0.1424323513E-01      0.3488815947E-01
          0                25           2             4    7     1      -0.2310549030E-03       4    7    1        -0.1206250537E-01      0.2954656077E-01
          0                26           2             4    7     1      -0.1957013987E-03       4    7    1        -0.1021683219E-01      0.2502566806E-01
          0                27           2             4    7     1      -0.1657708776E-03       4    7    1        -0.8654272503E-02      0.2119824885E-01
          0                28           2             4    7     1      -0.1404494635E-03       4    7    1        -0.7332336932E-02      0.1796022760E-01
          0                29           2             4    7     1      -0.1189782444E-03       4    7    1        -0.6211405525E-02      0.1521455686E-01
          0                30           1             4    7     1      -0.1008120209E-03       4    7    1        -0.5263015444E-02      0.1289151834E-01
          0                31           1             4    7     1      -0.8543902126E-04       4    7    1        -0.4460449165E-02      0.1092566859E-01

    ------------------------------------------------
       NWT REQUIRED           31 OUTER ITERATIONS 
       AND A TOTAL OF         60 INNER ITERATIONS.
    ------------------------------------------------

 NO OUTPUT CONTROL FOR STRESS PERIOD   32   TIME STEP    8
 
 SOLVING FOR HEAD 
                                                   Max.-Head-Change                         Max.-Flux-Residual
  Residual-Control   Outer-Iter.   Inner-Iter.     Column Row Layer    Maximum-Head-Change  Column Row Layer    Maximum-Flux-Residual          L2-NORM 
          0                 1           2             4    7     1      -0.1487255204E+00       4    7    1        -0.7806865672E+01      0.1667733862E+02
          0                 2           2             5    8     1      -0.4486699941E-02       5    8    1        -0.2486877875E+00      0.6155527891E+00
          0                 3           2             4    7     1      -0.1230676435E-01       4    7    1        -0.6429304954E+00      0.1543743928E+01
          0                 4           2             4    7     1      -0.8805427103E-02       5    8    1        -0.4618480513E+00      0.1129018897E+01
          0                 5           2             4    7     1      -0.7341566373E-02       4    7    1        -0.3832790162E+00      0.9385125433E+00
          0                 6           2             4    7     1      -0.6047271806E-02       5    8    1        -0.3157164807E+00      0.7733328116E+00
          0                 7           2             4    7     1      -0.5017375685E-02       4    7    1        -0.2619374270E+00      0.6416005499E+00
          0                 8           2             4    7     1      -0.4178056943E-02       4    7    1        -0.2181198440E+00      0.5342748500E+00
          0                 9           2             4    7     1      -0.3490097467E-02       4    7    1        -0.1822041946E+00      0.4463007940E+00
          0                10           2             4    7     1      -0.2922747477E-02       4    7    1        -0.1525850878E+00      0.3737501969E+00
                                                   Max.-Head-Change                         Max.-Flux-Residual
  Residual-Control   Outer-Iter.   Inner-Iter.     Column Row Layer    Maximum-Head-Change  Column Row Layer    Maximum-Flux-Residual          L2-NORM 
          0                11           2             4    7     1      -0.2452594164E-02       4    7    1        -0.1280402386E+00      0.3136287173E+00
          0                12           2             4    7     1      -0.2061519274E-02       4    7    1        -0.1076237629E+00      0.2636194993E+00
          0                13           2             4    7     1      -0.1735167944E-02       4    7    1        -0.9058624947E-01      0.2218868916E+00
          0                14           2             4    7     1      -0.1462151912E-02       4    7    1        -0.7633316176E-01      0.1869746059E+00
          0                15           2             4    7     1      -0.1233270626E-02       4    7    1        -0.6438417512E-01      0.1577061092E+00
          0                16           2             4    7     1      -0.1041022846E-02       4    7    1        -0.5434767922E-01      0.1331221706E+00
          0                17           2             4    7     1      -0.8793084022E-03       4    7    1        -0.4590520814E-01      0.1124427226E+00
          0                18           2             4    7     1      -0.7431292002E-03       4    7    1        -0.3879583115E-01      0.9502862748E-01
          0                19           2             4    7     1      -0.6283451170E-03       4    7    1        -0.3280340870E-01      0.8035046135E-01
          0                20           2             4    7     1      -0.5314791953E-03       4    7    1        -0.2774642258E-01      0.6796360380E-01
                                                   Max.-Head-Change                         Max.-Flux-Residual
  Residual-Control   Outer-Iter.   Inner-Iter.     Column Row Layer    Maximum-Head-Change  Column Row Layer    Maximum-Flux-Residual          L2-NORM 
          0                21           2             4    7     1      -0.4497188606E-03       4    7    1        -0.2347803939E-01      0.5750839317E-01
          0                22           2             4    7     1      -0.3806052513E-03       4    7    1        -0.1986989167E-01      0.4867039912E-01
          0                23           2             4    7     1      -0.3222104256E-03       4    7    1        -0.1682132920E-01      0.4120308381E-01
          0                24           2             4    7     1      -0.2728273620E-03       4    7    1        -0.1424323513E-01      0.3488815934E-01
          0                25           2             4    7     1      -0.2310557597E-03       4    7    1        -0.1206250533E-01      0.2954656065E-01
          0                26           2             4    7     1      -0.1957021254E-03       4    7    1        -0.1021683220E-01      0.2502566796E-01
          0                27           2             4    7     1      -0.1657714927E-03       4    7    1        -0.8654272492E-02      0.2119824876E-01
          0                28           2             4    7     1      -0.1404499846E-03       4    7    1        -0.7332336927E-02      0.1796022755E-01
          0                29           2             4    7     1      -0.1189786862E-03       4    7    1        -0.6211405530E-02      0.1521455680E-01
          0                30           1             4    7     1      -0.1008123952E-03       4    7    1        -0.5263015441E-02      0.1289151829E-01
          0                31           1             4    7     1      -0.8543933790E-04       4    7    1        -0.4460449146E-02      0.1092566854E-01

    ------------------------------------------------
       NWT REQUIRED           31 OUTER ITERATIONS 
       AND A TOTAL OF         60 INNER ITERATIONS.
    ------------------------------------------------

 NO OUTPUT CONTROL FOR STRESS PERIOD   32   TIME STEP    9
 
 SOLVING FOR HEAD 
                                                   Max.-Head-Change                         Max.-Flux-Residual
  Residual-Control   Outer-Iter.   Inner-Iter.     Column Row Layer    Maximum-Head-Change  Column Row Layer    Maximum-Flux-Residual          L2-NORM 
          0                 1           2             4    7     1      -0.1467460718E+00       4    7    1        -0.7705766096E+01      0.1636421655E+02
          0                 2           2             5    8     1      -0.4888202138E-02       5    8    1        -0.2706469985E+00      0.6638643403E+00
          0                 3           2             4    7     1      -0.1228701006E-01       4    7    1        -0.6419205869E+00      0.1539610897E+01
          0                 4           2             4    7     1      -0.8807440868E-02       5    8    1        -0.4620657022E+00      0.1129435884E+01
          0                 5           2             4    7     1      -0.7341396393E-02       4    7    1        -0.3832689386E+00      0.9384709317E+00
          0                 6           2             4    7     1      -0.6047314701E-02       5    8    1        -0.3157186490E+00      0.7733369661E+00
          0                 7           2             4    7     1      -0.5017392865E-02       4    7    1        -0.2619373261E+00      0.6416001311E+00
          0                 8           2             4    7     1      -0.4178073096E-02       4    7    1        -0.2181198539E+00      0.5342748891E+00
          0                 9           2             4    7     1      -0.3490110775E-02       4    7    1        -0.1822041934E+00      0.4463007877E+00
          0                10           2             4    7     1      -0.2922758640E-02       4    7    1        -0.1525850878E+00      0.3737501956E+00
                                                   Max.-Head-Change                         Max.-Flux-Residual
  Residual-Control   Outer-Iter.   Inner-Iter.     Column Row Layer    Maximum-Head-Change  Column Row Layer    Maximum-Flux-Residual          L2-NORM 
          0                11           2             4    7     1      -0.2452603530E-02       4    7    1        -0.1280402385E+00      0.3136287157E+00
          0                12           2             4    7     1      -0.2061527147E-02       4    7    1        -0.1076237628E+00      0.2636194980E+00
          0                13           2             4    7     1      -0.1735174570E-02       4    7    1        -0.9058624941E-01      0.2218868906E+00
          0                14           2             4    7     1      -0.1462157496E-02       4    7    1        -0.7633316172E-01      0.1869746050E+00
          0                15           2             4    7     1      -0.1233275335E-02       4    7    1        -0.6438417505E-01      0.1577061085E+00
          0                16           2             4    7     1      -0.1041026822E-02       4    7    1        -0.5434767918E-01      0.1331221700E+00
          0                17           2             4    7     1      -0.8793117598E-03       4    7    1        -0.4590520809E-01      0.1124427220E+00
          0                18           2             4    7     1      -0.7431320382E-03       4    7    1        -0.3879583112E-01      0.9502862702E-01
          0                19           2             4    7     1      -0.6283475164E-03       4    7    1        -0.3280340866E-01      0.8035046099E-01
          0                20           2             4    7     1      -0.5314812247E-03       4    7    1        -0.2774642255E-01      0.6796360348E-01
                                                   Max.-Head-Change                         Max.-Flux-Residual
  Residual-Control   Outer-Iter.   Inner-Iter.     Column Row Layer    Maximum-Head-Change  Column Row Layer    Maximum-Flux-Residual          L2-NORM 
          0                21           2             4    7     1      -0.4497205782E-03       4    7    1        -0.2347803937E-01      0.5750839292E-01
          0                22           2             4    7     1      -0.3806067047E-03       4    7    1        -0.1986989163E-01      0.4867039889E-01
          0                23           2             4    7     1      -0.3222116560E-03       4    7    1        -0.1682132917E-01      0.4120308361E-01
          0                24           2             4    7     1      -0.2728284035E-03       4    7    1        -0.1424323510E-01      0.3488815916E-01
          0                25           2             4    7     1      -0.2310566420E-03       4    7    1        -0.1206250532E-01      0.2954656051E-01
          0                26           2             4    7     1      -0.1957028729E-03       4    7    1        -0.1021683220E-01      0.2502566785E-01
          0                27           2             4    7     1      -0.1657721256E-03       4    7    1        -0.8654272480E-02      0.2119824866E-01
          0                28           2             4    7     1      -0.1404505212E-03       4    7    1        -0.7332336924E-02      0.1796022746E-01
          0                29           2             4    7     1      -0.1189791403E-03       4    7    1        -0.6211405516E-02      0.1521455673E-01
          0                30           1             4    7     1      -0.1008127802E-03       4    7    1        -0.5263015435E-02      0.1289151823E-01
          0                31           1             4    7     1      -0.8543966442E-04       4    7    1        -0.4460449137E-02      0.1092566849E-01

    ------------------------------------------------
       NWT REQUIRED           31 OUTER ITERATIONS 
       AND A TOTAL OF         60 INNER ITERATIONS.
    ------------------------------------------------

 NO OUTPUT CONTROL FOR STRESS PERIOD   32   TIME STEP   10
 
 SOLVING FOR HEAD 
                                                   Max.-Head-Change                         Max.-Flux-Residual
  Residual-Control   Outer-Iter.   Inner-Iter.     Column Row Layer    Maximum-Head-Change  Column Row Layer    Maximum-Flux-Residual          L2-NORM 
          0                 1           2             4    7     1      -0.1447380116E+00       4    7    1        -0.7602926713E+01      0.1606766645E+02
          0                 2           2             5    8     1      -0.5269976459E-02       5    8    1        -0.2915094665E+00      0.7108272906E+00
          0                 3           2             4    7     1      -0.1226697156E-01       4    7    1        -0.6408932665E+00      0.1535608280E+01
          0                 4           2             4    7     1      -0.8809484001E-02       5    8    1        -0.4622725131E+00      0.1129839960E+01
          0                 5           2             4    7     1      -0.7341224253E-02       4    7    1        -0.3832586865E+00      0.9384306103E+00
          0                 6           2             4    7     1      -0.6047358452E-02       5    8    1        -0.3157207096E+00      0.7733409928E+00
          0                 7           2             4    7     1      -0.5017410490E-02       4    7    1        -0.2619372233E+00      0.6415997261E+00
          0                 8           2             4    7     1      -0.4178089646E-02       4    7    1        -0.2181198640E+00      0.5342749275E+00
          0                 9           2             4    7     1      -0.3490124412E-02       4    7    1        -0.1822041922E+00      0.4463007822E+00
          0                10           2             4    7     1      -0.2922770079E-02       4    7    1        -0.1525850877E+00      0.3737501948E+00
                                                   Max.-Head-Change                         Max.-Flux-Residual
  Residual-Control   Outer-Iter.   Inner-Iter.     Column Row Layer    Maximum-Head-Change  Column Row Layer    Maximum-Flux-Residual          L2-NORM 
          0                11           2             4    7     1      -0.2452613127E-02       4    7    1        -0.1280402384E+00      0.3136287146E+00
          0                12           2             4    7     1      -0.2061535214E-02       4    7    1        -0.1076237627E+00      0.2636194971E+00
          0                13           2             4    7     1      -0.1735181361E-02       4    7    1        -0.9058624933E-01      0.2218868898E+00
          0                14           2             4    7     1      -0.1462163217E-02       4    7    1        -0.7633316164E-01      0.1869746044E+00
          0                15           2             4    7     1      -0.1233280162E-02       4    7    1        -0.6438417501E-01      0.1577061080E+00
          0                16           2             4    7     1      -0.1041030896E-02       4    7    1        -0.5434767912E-01      0.1331221695E+00
          0                17           2             4    7     1      -0.8793152004E-03       4    7    1        -0.4590520803E-01      0.1124427216E+00
          0                18           2             4    7     1      -0.7431349462E-03       4    7    1        -0.3879583108E-01      0.9502862671E-01
          0                19           2             4    7     1      -0.6283499752E-03       4    7    1        -0.3280340864E-01      0.8035046073E-01
          0                20           2             4    7     1      -0.5314833050E-03       4    7    1        -0.2774642254E-01      0.6796360325E-01
                                                   Max.-Head-Change                         Max.-Flux-Residual
  Residual-Control   Outer-Iter.   Inner-Iter.     Column Row Layer    Maximum-Head-Change  Column Row Layer    Maximum-Flux-Residual          L2-NORM 
          0                21           2             4    7     1      -0.4497223372E-03       4    7    1        -0.2347803932E-01      0.5750839270E-01
          0                22           2             4    7     1      -0.3806081942E-03       4    7    1        -0.1986989164E-01      0.4867039880E-01
          0                23           2             4    7     1      -0.3222129171E-03       4    7    1        -0.1682132917E-01      0.4120308352E-01
          0                24           2             4    7     1      -0.2728294710E-03       4    7    1        -0.1424323509E-01      0.3488815905E-01
          0                25           2             4    7     1      -0.2310575464E-03       4    7    1        -0.1206250532E-01      0.2954656042E-01
          0                26           2             4    7     1      -0.1957036386E-03       4    7    1        -0.1021683218E-01      0.2502566781E-01
          0                27           2             4    7     1      -0.1657727745E-03       4    7    1        -0.8654272474E-02      0.2119824861E-01
          0                28           2             4    7     1      -0.1404510704E-03       4    7    1        -0.7332336907E-02      0.1796022739E-01
          0                29           2             4    7     1      -0.1189796061E-03       4    7    1        -0.6211405522E-02      0.1521455667E-01
          0                30           1             4    7     1      -0.1008131745E-03       4    7    1        -0.5263015432E-02      0.1289151824E-01
          0                31           1             4    7     1      -0.8543999894E-04       4    7    1        -0.4460449145E-02      0.1092566848E-01

    ------------------------------------------------
       NWT REQUIRED           31 OUTER ITERATIONS 
       AND A TOTAL OF         60 INNER ITERATIONS.
    ------------------------------------------------

 NO OUTPUT CONTROL FOR STRESS PERIOD   32   TIME STEP   11
 
 SOLVING FOR HEAD 
                                                   Max.-Head-Change                         Max.-Flux-Residual
  Residual-Control   Outer-Iter.   Inner-Iter.     Column Row Layer    Maximum-Head-Change  Column Row Layer    Maximum-Flux-Residual          L2-NORM 
          0                 1           2             4    7     1      -0.1427058088E+00       4    7    1        -0.7498596929E+01      0.1578651981E+02
          0                 2           2             5    8     1      -0.5633359726E-02       5    8    1        -0.3113490117E+00      0.7558157890E+00
          0                 3           2             4    7     1      -0.1224669246E-01       4    7    1        -0.6398510267E+00      0.1531727804E+01
          0                 4           2             4    7     1      -0.8811552057E-02       5    8    1        -0.4624692185E+00      0.1130231808E+01
          0                 5           2             4    7     1      -0.7341050330E-02       4    7    1        -0.3832482847E+00      0.9383915063E+00
          0                 6           2             4    7     1      -0.6047402965E-02       5    8    1        -0.3157226696E+00      0.7733448982E+00
          0                 7           2             4    7     1      -0.5017428523E-02       4    7    1        -0.2619371191E+00      0.6415993334E+00
          0                 8           2             4    7     1      -0.4178106559E-02       4    7    1        -0.2181198742E+00      0.5342749649E+00
          0                 9           2             4    7     1      -0.3490138350E-02       4    7    1        -0.1822041910E+00      0.4463007768E+00
          0                10           2             4    7     1      -0.2922781770E-02       4    7    1        -0.1525850877E+00      0.3737501940E+00
                                                   Max.-Head-Change                         Max.-Flux-Residual
  Residual-Control   Outer-Iter.   Inner-Iter.     Column Row Layer    Maximum-Head-Change  Column Row Layer    Maximum-Flux-Residual          L2-NORM 
          0                11           2             4    7     1      -0.2452622935E-02       4    7    1        -0.1280402382E+00      0.3136287136E+00
          0                12           2             4    7     1      -0.2061543459E-02       4    7    1        -0.1076237626E+00      0.2636194963E+00
          0                13           2             4    7     1      -0.1735188300E-02       4    7    1        -0.9058624925E-01      0.2218868891E+00
          0                14           2             4    7     1      -0.1462169065E-02       4    7    1        -0.7633316158E-01      0.1869746038E+00
          0                15           2             4    7     1      -0.1233285094E-02       4    7    1        -0.6438417494E-01      0.1577061075E+00
          0                16           2             4    7     1      -0.1041035059E-02       4    7    1        -0.5434767908E-01      0.1331221691E+00
          0                17           2             4    7     1      -0.8793187174E-03       4    7    1        -0.4590520801E-01      0.1124427213E+00
          0                18           2             4    7     1      -0.7431379181E-03       4    7    1        -0.3879583105E-01      0.9502862640E-01
          0                19           2             4    7     1      -0.6283524882E-03       4    7    1        -0.3280340861E-01      0.8035046049E-01
          0                20           2             4    7     1      -0.5314854302E-03       4    7    1        -0.2774642251E-01      0.6796360305E-01
                                                   Max.-Head-Change                         Max.-Flux-Residual
  Residual-Control   Outer-Iter.   Inner-Iter.     Column Row Layer    Maximum-Head-Change  Column Row Layer    Maximum-Flux-Residual          L2-NORM 
          0                21           2             4    7     1      -0.4497241364E-03       4    7    1        -0.2347803933E-01      0.5750839255E-01
          0                22           2             4    7     1      -0.3806097161E-03       4    7    1        -0.1986989161E-01      0.4867039858E-01
          0                23           2             4    7     1      -0.3222142058E-03       4    7    1        -0.1682132916E-01      0.4120308335E-01
          0                24           2             4    7     1      -0.2728305619E-03       4    7    1        -0.1424323508E-01      0.3488815894E-01
          0                25           2             4    7     1      -0.2310584708E-03       4    7    1        -0.1206250532E-01      0.2954656031E-01
          0                26           2             4    7     1      -0.1957044211E-03       4    7    1        -0.1021683217E-01      0.2502566768E-01
          0                27           2             4    7     1      -0.1657734373E-03       4    7    1        -0.8654272469E-02      0.2119824852E-01
          0                28           2             4    7     1      -0.1404516323E-03       4    7    1        -0.7332336913E-02      0.1796022733E-01
          0                29           2             4    7     1      -0.1189800814E-03       4    7    1        -0.6211405511E-02      0.1521455664E-01
          0                30           1             4    7     1      -0.1008135781E-03       4    7    1        -0.5263015452E-02      0.1289151814E-01
          0                31           1             4    7     1      -0.8544034047E-04       4    7    1        -0.4460449146E-02      0.1092566842E-01

    ------------------------------------------------
       NWT REQUIRED           31 OUTER ITERATIONS 
       AND A TOTAL OF         60 INNER ITERATIONS.
    ------------------------------------------------

 NO OUTPUT CONTROL FOR STRESS PERIOD   32   TIME STEP   12
 
 SOLVING FOR HEAD 
                                                   Max.-Head-Change                         Max.-Flux-Residual
  Residual-Control   Outer-Iter.   Inner-Iter.     Column Row Layer    Maximum-Head-Change  Column Row Layer    Maximum-Flux-Residual          L2-NORM 
          0                 1           2             4    7     1      -0.1406536285E+00       4    7    1        -0.7393008870E+01      0.1551978338E+02
          0                 2           2             5    8     1      -0.5979500894E-02       5    8    1        -0.3302306277E+00      0.7991275837E+00
          0                 3           2             4    7     1      -0.1222621458E-01       4    7    1        -0.6387961880E+00      0.1527964560E+01
          0                 4           2             4    7     1      -0.8813640766E-02       5    8    1        -0.4626564577E+00      0.1130611919E+01
          0                 5           2             4    7     1      -0.7340874976E-02       4    7    1        -0.3832377564E+00      0.9383535717E+00
          0                 6           2             4    7     1      -0.6047448145E-02       5    8    1        -0.3157245355E+00      0.7733486870E+00
          0                 7           2             4    7     1      -0.5017446924E-02       4    7    1        -0.2619370137E+00      0.6415989526E+00
          0                 8           2             4    7     1      -0.4178123796E-02       4    7    1        -0.2181198845E+00      0.5342750013E+00
          0                 9           2             4    7     1      -0.3490152557E-02       4    7    1        -0.1822041898E+00      0.4463007718E+00
          0                10           2             4    7     1      -0.2922793687E-02       4    7    1        -0.1525850877E+00      0.3737501933E+00
                                                   Max.-Head-Change                         Max.-Flux-Residual
  Residual-Control   Outer-Iter.   Inner-Iter.     Column Row Layer    Maximum-Head-Change  Column Row Layer    Maximum-Flux-Residual          L2-NORM 
          0                11           2             4    7     1      -0.2452632933E-02       4    7    1        -0.1280402381E+00      0.3136287127E+00
          0                12           2             4    7     1      -0.2061551863E-02       4    7    1        -0.1076237626E+00      0.2636194956E+00
          0                13           2             4    7     1      -0.1735195374E-02       4    7    1        -0.9058624918E-01      0.2218868885E+00
          0                14           2             4    7     1      -0.1462175025E-02       4    7    1        -0.7633316152E-01      0.1869746032E+00
          0                15           2             4    7     1      -0.1233290122E-02       4    7    1        -0.6438417492E-01      0.1577061071E+00
          0                16           2             4    7     1      -0.1041039303E-02       4    7    1        -0.5434767904E-01      0.1331221688E+00
          0                17           2             4    7     1      -0.8793223022E-03       4    7    1        -0.4590520798E-01      0.1124427210E+00
          0                18           2             4    7     1      -0.7431409472E-03       4    7    1        -0.3879583101E-01      0.9502862613E-01
          0                19           2             4    7     1      -0.6283550500E-03       4    7    1        -0.3280340860E-01      0.8035046025E-01
          0                20           2             4    7     1      -0.5314875967E-03       4    7    1        -0.2774642248E-01      0.6796360284E-01
                                                   Max.-Head-Change                         Max.-Flux-Residual
  Residual-Control   Outer-Iter.   Inner-Iter.     Column Row Layer    Maximum-Head-Change  Column Row Layer    Maximum-Flux-Residual          L2-NORM 
          0                21           2             4    7     1      -0.4497259697E-03       4    7    1        -0.2347803932E-01      0.5750839238E-01
          0                22           2             4    7     1      -0.3806112677E-03       4    7    1        -0.1986989160E-01      0.4867039844E-01
          0                23           2             4    7     1      -0.3222155192E-03       4    7    1        -0.1682132915E-01      0.4120308323E-01
          0                24           2             4    7     1      -0.2728316744E-03       4    7    1        -0.1424323508E-01      0.3488815884E-01
          0                25           2             4    7     1      -0.2310594129E-03       4    7    1        -0.1206250531E-01      0.2954656023E-01
          0                26           2             4    7     1      -0.1957052189E-03       4    7    1        -0.1021683215E-01      0.2502566759E-01
          0                27           2             4    7     1      -0.1657741130E-03       4    7    1        -0.8654272449E-02      0.2119824846E-01
          0                28           2             4    7     1      -0.1404522047E-03       4    7    1        -0.7332336897E-02      0.1796022729E-01
          0                29           2             4    7     1      -0.1189805667E-03       4    7    1        -0.6211405512E-02      0.1521455659E-01
          0                30           1             4    7     1      -0.1008139891E-03       4    7    1        -0.5263015443E-02      0.1289151812E-01
          0                31           1             4    7     1      -0.8544068887E-04       4    7    1        -0.4460449137E-02      0.1092566839E-01

    ------------------------------------------------
       NWT REQUIRED           31 OUTER ITERATIONS 
       AND A TOTAL OF         60 INNER ITERATIONS.
    ------------------------------------------------

 NO OUTPUT CONTROL FOR STRESS PERIOD   32   TIME STEP   13
 
 SOLVING FOR HEAD 
                                                   Max.-Head-Change                         Max.-Flux-Residual
  Residual-Control   Outer-Iter.   Inner-Iter.     Column Row Layer    Maximum-Head-Change  Column Row Layer    Maximum-Flux-Residual          L2-NORM 
          0                 1           2             4    7     1      -0.1385855982E+00       4    7    1        -0.7286392869E+01      0.1526652862E+02
          0                 2           2             5    8     1      -0.6309524946E-02       5    8    1        -0.3482174029E+00      0.8408366059E+00
          0                 3           2             4    7     1      -0.1220557907E-01       4    7    1        -0.6377310531E+00      0.1524313254E+01
          0                 4           2             4    7     1      -0.8815745922E-02       5    8    1        -0.4628348537E+00      0.1130980796E+01
          0                 5           2             4    7     1      -0.7340698541E-02       4    7    1        -0.3832271247E+00      0.9383167563E+00
          0                 6           2             4    7     1      -0.6047493898E-02       5    8    1        -0.3157263135E+00      0.7733523643E+00
          0                 7           2             4    7     1      -0.5017465652E-02       4    7    1        -0.2619369072E+00      0.6415985831E+00
          0                 8           2             4    7     1      -0.4178141321E-02       4    7    1        -0.2181198950E+00      0.5342750367E+00
          0                 9           2             4    7     1      -0.3490167003E-02       4    7    1        -0.1822041886E+00      0.4463007670E+00
          0                10           2             4    7     1      -0.2922805804E-02       4    7    1        -0.1525850877E+00      0.3737501927E+00
                                                   Max.-Head-Change                         Max.-Flux-Residual
  Residual-Control   Outer-Iter.   Inner-Iter.     Column Row Layer    Maximum-Head-Change  Column Row Layer    Maximum-Flux-Residual          L2-NORM 
          0                11           2             4    7     1      -0.2452643099E-02       4    7    1        -0.1280402380E+00      0.3136287118E+00
          0                12           2             4    7     1      -0.2061560407E-02       4    7    1        -0.1076237625E+00      0.2636194948E+00
          0                13           2             4    7     1      -0.1735202566E-02       4    7    1        -0.9058624911E-01      0.2218868879E+00
          0                14           2             4    7     1      -0.1462181086E-02       4    7    1        -0.7633316145E-01      0.1869746028E+00
          0                15           2             4    7     1      -0.1233295233E-02       4    7    1        -0.6438417486E-01      0.1577061066E+00
          0                16           2             4    7     1      -0.1041043618E-02       4    7    1        -0.5434767900E-01      0.1331221684E+00
          0                17           2             4    7     1      -0.8793259466E-03       4    7    1        -0.4590520794E-01      0.1124427207E+00
          0                18           2             4    7     1      -0.7431440278E-03       4    7    1        -0.3879583100E-01      0.9502862589E-01
          0                19           2             4    7     1      -0.6283576543E-03       4    7    1        -0.3280340857E-01      0.8035046005E-01
          0                20           2             4    7     1      -0.5314897999E-03       4    7    1        -0.2774642247E-01      0.6796360266E-01
                                                   Max.-Head-Change                         Max.-Flux-Residual
  Residual-Control   Outer-Iter.   Inner-Iter.     Column Row Layer    Maximum-Head-Change  Column Row Layer    Maximum-Flux-Residual          L2-NORM 
          0                21           2             4    7     1      -0.4497278338E-03       4    7    1        -0.2347803929E-01      0.5750839223E-01
          0                22           2             4    7     1      -0.3806128454E-03       4    7    1        -0.1986989158E-01      0.4867039833E-01
          0                23           2             4    7     1      -0.3222168550E-03       4    7    1        -0.1682132913E-01      0.4120308313E-01
          0                24           2             4    7     1      -0.2728328046E-03       4    7    1        -0.1424323504E-01      0.3488815873E-01
          0                25           2             4    7     1      -0.2310603703E-03       4    7    1        -0.1206250531E-01      0.2954656016E-01
          0                26           2             4    7     1      -0.1957060304E-03       4    7    1        -0.1021683217E-01      0.2502566756E-01
          0                27           2             4    7     1      -0.1657748000E-03       4    7    1        -0.8654272448E-02      0.2119824840E-01
          0                28           2             4    7     1      -0.1404527873E-03       4    7    1        -0.7332336905E-02      0.1796022724E-01
          0                29           2             4    7     1      -0.1189810594E-03       4    7    1        -0.6211405490E-02      0.1521455708E-01
          0                30           1             4    7     1      -0.1008144071E-03       4    7    1        -0.5263015451E-02      0.1289151999E-01
          0                31           1             4    7     1      -0.8544104291E-04       4    7    1        -0.4460449135E-02      0.1092567009E-01

    ------------------------------------------------
       NWT REQUIRED           31 OUTER ITERATIONS 
       AND A TOTAL OF         60 INNER ITERATIONS.
    ------------------------------------------------

 NO OUTPUT CONTROL FOR STRESS PERIOD   32   TIME STEP   14
 
 SOLVING FOR HEAD 
                                                   Max.-Head-Change                         Max.-Flux-Residual
  Residual-Control   Outer-Iter.   Inner-Iter.     Column Row Layer    Maximum-Head-Change  Column Row Layer    Maximum-Flux-Residual          L2-NORM 
          0                 1           2             4    7     1      -0.1365052821E+00       4    7    1        -0.7178948358E+01      0.1502592019E+02
          0                 2           2             5    8     1      -0.6624443366E-02       5    8    1        -0.3653661080E+00      0.8810182510E+00
          0                 3           2             4    7     1      -0.1218482149E-01       4    7    1        -0.6366576152E+00      0.1520769025E+01
          0                 4           2             4    7     1      -0.8817863894E-02       5    8    1        -0.4630049668E+00      0.1131338907E+01
          0                 5           2             4    7     1      -0.7340521323E-02       4    7    1        -0.3832164095E+00      0.9382810133E+00
          0                 6           2             4    7     1      -0.6047540140E-02       5    8    1        -0.3157280091E+00      0.7733559346E+00
          0                 7           2             4    7     1      -0.5017484673E-02       4    7    1        -0.2619367999E+00      0.6415982245E+00
          0                 8           2             4    7     1      -0.4178159101E-02       4    7    1        -0.2181199056E+00      0.5342750712E+00
          0                 9           2             4    7     1      -0.3490181660E-02       4    7    1        -0.1822041874E+00      0.4463007624E+00
          0                10           2             4    7     1      -0.2922818098E-02       4    7    1        -0.1525850877E+00      0.3737501922E+00
                                                   Max.-Head-Change                         Max.-Flux-Residual
  Residual-Control   Outer-Iter.   Inner-Iter.     Column Row Layer    Maximum-Head-Change  Column Row Layer    Maximum-Flux-Residual          L2-NORM 
          0                11           2             4    7     1      -0.2452653413E-02       4    7    1        -0.1280402379E+00      0.3136287111E+00
          0                12           2             4    7     1      -0.2061569078E-02       4    7    1        -0.1076237624E+00      0.2636194943E+00
          0                13           2             4    7     1      -0.1735209863E-02       4    7    1        -0.9058624905E-01      0.2218868874E+00
          0                14           2             4    7     1      -0.1462187235E-02       4    7    1        -0.7633316141E-01      0.1869746023E+00
          0                15           2             4    7     1      -0.1233300420E-02       4    7    1        -0.6438417481E-01      0.1577061063E+00
          0                16           2             4    7     1      -0.1041047996E-02       4    7    1        -0.5434767897E-01      0.1331221681E+00
          0                17           2             4    7     1      -0.8793296445E-03       4    7    1        -0.4590520790E-01      0.1124427204E+00
          0                18           2             4    7     1      -0.7431471535E-03       4    7    1        -0.3879583098E-01      0.9502862567E-01
          0                19           2             4    7     1      -0.6283602970E-03       4    7    1        -0.3280340854E-01      0.8035045986E-01
          0                20           2             4    7     1      -0.5314920348E-03       4    7    1        -0.2774642244E-01      0.6796360251E-01
                                                   Max.-Head-Change                         Max.-Flux-Residual
  Residual-Control   Outer-Iter.   Inner-Iter.     Column Row Layer    Maximum-Head-Change  Column Row Layer    Maximum-Flux-Residual          L2-NORM 
          0                21           2             4    7     1      -0.4497297256E-03       4    7    1        -0.2347803929E-01      0.5750839210E-01
          0                22           2             4    7     1      -0.3806144460E-03       4    7    1        -0.1986989155E-01      0.4867039819E-01
          0                23           2             4    7     1      -0.3222182098E-03       4    7    1        -0.1682132912E-01      0.4120308303E-01
          0                24           2             4    7     1      -0.2728339525E-03       4    7    1        -0.1424323505E-01      0.3488815868E-01
          0                25           2             4    7     1      -0.2310613417E-03       4    7    1        -0.1206250529E-01      0.2954656010E-01
          0                26           2             4    7     1      -0.1957068535E-03       4    7    1        -0.1021683217E-01      0.2502566751E-01
          0                27           2             4    7     1      -0.1657754976E-03       4    7    1        -0.8654272453E-02      0.2119824837E-01
          0                28           2             4    7     1      -0.1404533774E-03       4    7    1        -0.7332336881E-02      0.1796022718E-01
          0                29           2             4    7     1      -0.1189815603E-03       4    7    1        -0.6211405501E-02      0.1521455653E-01
          0                30           1             4    7     1      -0.1008148308E-03       4    7    1        -0.5263015422E-02      0.1289151804E-01
          0                31           1             4    7     1      -0.8544140232E-04       4    7    1        -0.4460449133E-02      0.1092566835E-01

    ------------------------------------------------
       NWT REQUIRED           31 OUTER ITERATIONS 
       AND A TOTAL OF         60 INNER ITERATIONS.
    ------------------------------------------------

 NO OUTPUT CONTROL FOR STRESS PERIOD   32   TIME STEP   15
 
 SOLVING FOR HEAD 
                                                   Max.-Head-Change                         Max.-Flux-Residual
  Residual-Control   Outer-Iter.   Inner-Iter.     Column Row Layer    Maximum-Head-Change  Column Row Layer    Maximum-Flux-Residual          L2-NORM 
          0                 1           2             4    7     1      -0.1344162477E+00       4    7    1        -0.7070874638E+01      0.1479717568E+02
          0                 2           2             5    8     1      -0.6925205747E-02       5    8    1        -0.3817299695E+00      0.9197456988E+00
          0                 3           2             4    7     1      -0.1216397740E-01       4    7    1        -0.6355778673E+00      0.1517327222E+01
          0                 4           2             4    7     1      -0.8819991047E-02       5    8    1        -0.4631673226E+00      0.1131686702E+01
          0                 5           2             4    7     1      -0.7340343622E-02       4    7    1        -0.3832056308E+00      0.9382462979E+00
          0                 6           2             4    7     1      -0.6047586790E-02       5    8    1        -0.3157296275E+00      0.7733594025E+00
          0                 7           2             4    7     1      -0.5017503951E-02       4    7    1        -0.2619366920E+00      0.6415978762E+00
          0                 8           2             4    7     1      -0.4178177103E-02       4    7    1        -0.2181199162E+00      0.5342751047E+00
          0                 9           2             4    7     1      -0.3490196502E-02       4    7    1        -0.1822041862E+00      0.4463007580E+00
          0                10           2             4    7     1      -0.2922830547E-02       4    7    1        -0.1525850877E+00      0.3737501918E+00
                                                   Max.-Head-Change                         Max.-Flux-Residual
  Residual-Control   Outer-Iter.   Inner-Iter.     Column Row Layer    Maximum-Head-Change  Column Row Layer    Maximum-Flux-Residual          L2-NORM 
          0                11           2             4    7     1      -0.2452663858E-02       4    7    1        -0.1280402378E+00      0.3136287104E+00
          0                12           2             4    7     1      -0.2061577857E-02       4    7    1        -0.1076237623E+00      0.2636194937E+00
          0                13           2             4    7     1      -0.1735217253E-02       4    7    1        -0.9058624899E-01      0.2218868870E+00
          0                14           2             4    7     1      -0.1462193462E-02       4    7    1        -0.7633316135E-01      0.1869746020E+00
          0                15           2             4    7     1      -0.1233305672E-02       4    7    1        -0.6438417477E-01      0.1577061060E+00
          0                16           2             4    7     1      -0.1041052430E-02       4    7    1        -0.5434767892E-01      0.1331221678E+00
          0                17           2             4    7     1      -0.8793333894E-03       4    7    1        -0.4590520787E-01      0.1124427202E+00
          0                18           2             4    7     1      -0.7431503179E-03       4    7    1        -0.3879583094E-01      0.9502862549E-01
          0                19           2             4    7     1      -0.6283629726E-03       4    7    1        -0.3280340852E-01      0.8035045968E-01
          0                20           2             4    7     1      -0.5314942986E-03       4    7    1        -0.2774642243E-01      0.6796360238E-01
                                                   Max.-Head-Change                         Max.-Flux-Residual
  Residual-Control   Outer-Iter.   Inner-Iter.     Column Row Layer    Maximum-Head-Change  Column Row Layer    Maximum-Flux-Residual          L2-NORM 
          0                21           2             4    7     1      -0.4497316404E-03       4    7    1        -0.2347803925E-01      0.5750839200E-01
          0                22           2             4    7     1      -0.3806160668E-03       4    7    1        -0.1986989154E-01      0.4867039811E-01
          0                23           2             4    7     1      -0.3222195819E-03       4    7    1        -0.1682132911E-01      0.4120308295E-01
          0                24           2             4    7     1      -0.2728351146E-03       4    7    1        -0.1424323505E-01      0.3488815860E-01
          0                25           2             4    7     1      -0.2310623260E-03       4    7    1        -0.1206250528E-01      0.2954656002E-01
          0                26           2             4    7     1      -0.1957076869E-03       4    7    1        -0.1021683214E-01      0.2502566744E-01
          0                27           2             4    7     1      -0.1657762033E-03       4    7    1        -0.8654272428E-02      0.2119824831E-01
          0                28           2             4    7     1      -0.1404539756E-03       4    7    1        -0.7332336875E-02      0.1796022716E-01
          0                29           2             4    7     1      -0.1189820668E-03       4    7    1        -0.6211405492E-02      0.1521455647E-01
          0                30           1             4    7     1      -0.1008152603E-03       4    7    1        -0.5263015425E-02      0.1289151802E-01
          0                31           1             4    7     1      -0.8544176598E-04       4    7    1        -0.4460449117E-02      0.1092566832E-01

    ------------------------------------------------
       NWT REQUIRED           31 OUTER ITERATIONS 
       AND A TOTAL OF         60 INNER ITERATIONS.
    ------------------------------------------------

 NO OUTPUT CONTROL FOR STRESS PERIOD   32   TIME STEP   16
 
 SOLVING FOR HEAD 
                                                   Max.-Head-Change                         Max.-Flux-Residual
  Residual-Control   Outer-Iter.   Inner-Iter.     Column Row Layer    Maximum-Head-Change  Column Row Layer    Maximum-Flux-Residual          L2-NORM 
          0                 1           2             4    7     1      -0.1323213923E+00       4    7    1        -0.6962334873E+01      0.1457957308E+02
          0                 2           2             5    8     1      -0.7212690580E-02       5    8    1        -0.3973582243E+00      0.9570901165E+00
          0                 3           2             4    7     1      -0.1214307571E-01       4    7    1        -0.6344934399E+00      0.1513983445E+01
          0                 4           2             4    7     1      -0.8822124426E-02       5    8    1        -0.4633224069E+00      0.1132024609E+01
          0                 5           2             4    7     1      -0.7340165682E-02       4    7    1        -0.3831948047E+00      0.9382125676E+00
          0                 6           2             4    7     1      -0.6047633779E-02       5    8    1        -0.3157311737E+00      0.7733627722E+00
          0                 7           2             4    7     1      -0.5017523456E-02       4    7    1        -0.2619365836E+00      0.6415975380E+00
          0                 8           2             4    7     1      -0.4178195299E-02       4    7    1        -0.2181199269E+00      0.5342751374E+00
          0                 9           2             4    7     1      -0.3490211507E-02       4    7    1        -0.1822041850E+00      0.4463007538E+00
          0                10           2             4    7     1      -0.2922843132E-02       4    7    1        -0.1525850877E+00      0.3737501914E+00
                                                   Max.-Head-Change                         Max.-Flux-Residual
  Residual-Control   Outer-Iter.   Inner-Iter.     Column Row Layer    Maximum-Head-Change  Column Row Layer    Maximum-Flux-Residual          L2-NORM 
          0                11           2             4    7     1      -0.2452674417E-02       4    7    1        -0.1280402377E+00      0.3136287098E+00
          0                12           2             4    7     1      -0.2061586732E-02       4    7    1        -0.1076237622E+00      0.2636194932E+00
          0                13           2             4    7     1      -0.1735224723E-02       4    7    1        -0.9058624893E-01      0.2218868866E+00
          0                14           2             4    7     1      -0.1462199757E-02       4    7    1        -0.7633316131E-01      0.1869746016E+00
          0                15           2             4    7     1      -0.1233310981E-02       4    7    1        -0.6438417471E-01      0.1577061057E+00
          0                16           2             4    7     1      -0.1041056911E-02       4    7    1        -0.5434767889E-01      0.1331221676E+00
          0                17           2             4    7     1      -0.8793371749E-03       4    7    1        -0.4590520785E-01      0.1124427200E+00
          0                18           2             4    7     1      -0.7431535174E-03       4    7    1        -0.3879583092E-01      0.9502862531E-01
          0                19           2             4    7     1      -0.6283656778E-03       4    7    1        -0.3280340849E-01      0.8035045954E-01
          0                20           2             4    7     1      -0.5314965863E-03       4    7    1        -0.2774642241E-01      0.6796360226E-01
                                                   Max.-Head-Change                         Max.-Flux-Residual
  Residual-Control   Outer-Iter.   Inner-Iter.     Column Row Layer    Maximum-Head-Change  Column Row Layer    Maximum-Flux-Residual          L2-NORM 
          0                21           2             4    7     1      -0.4497335766E-03       4    7    1        -0.2347803925E-01      0.5750839189E-01
          0                22           2             4    7     1      -0.3806177055E-03       4    7    1        -0.1986989154E-01      0.4867039803E-01
          0                23           2             4    7     1      -0.3222209690E-03       4    7    1        -0.1682132909E-01      0.4120308288E-01
          0                24           2             4    7     1      -0.2728362893E-03       4    7    1        -0.1424323504E-01      0.3488815854E-01
          0                25           2             4    7     1      -0.2310633205E-03       4    7    1        -0.1206250527E-01      0.2954655998E-01
          0                26           2             4    7     1      -0.1957085295E-03       4    7    1        -0.1021683215E-01      0.2502566741E-01
          0                27           2             4    7     1      -0.1657769170E-03       4    7    1        -0.8654272432E-02      0.2119824830E-01
          0                28           2             4    7     1      -0.1404545806E-03       4    7    1        -0.7332336881E-02      0.1796022713E-01
          0                29           2             4    7     1      -0.1189825789E-03       4    7    1        -0.6211405481E-02      0.1521455645E-01
          0                30           1             4    7     1      -0.1008156943E-03       4    7    1        -0.5263015425E-02      0.1289151800E-01
          0                31           1             4    7     1      -0.8544213377E-04       4    7    1        -0.4460449121E-02      0.1092566830E-01

    ------------------------------------------------
       NWT REQUIRED           31 OUTER ITERATIONS 
       AND A TOTAL OF         60 INNER ITERATIONS.
    ------------------------------------------------

 NO OUTPUT CONTROL FOR STRESS PERIOD   32   TIME STEP   17
 
 SOLVING FOR HEAD 
                                                   Max.-Head-Change                         Max.-Flux-Residual
  Residual-Control   Outer-Iter.   Inner-Iter.     Column Row Layer    Maximum-Head-Change  Column Row Layer    Maximum-Flux-Residual          L2-NORM 
          0                 1           2             4    7     1      -0.1302237807E+00       4    7    1        -0.6853501036E+01      0.1437245090E+02
          0                 2           2             5    8     1      -0.7487711749E-02       5    8    1        -0.4122964236E+00      0.9931204097E+00
          0                 3           2             4    7     1      -0.1212214697E-01       4    7    1        -0.6334060526E+00      0.1510733552E+01
          0                 4           2             4    7     1      -0.8824260908E-02       5    8    1        -0.4634706696E+00      0.1132353033E+01
          0                 5           2             4    7     1      -0.7339987757E-02       4    7    1        -0.3831839486E+00      0.9381797818E+00
          0                 6           2             4    7     1      -0.6047681037E-02       5    8    1        -0.3157326520E+00      0.7733660476E+00
          0                 7           2             4    7     1      -0.5017543157E-02       4    7    1        -0.2619364749E+00      0.6415972093E+00
          0                 8           2             4    7     1      -0.4178213663E-02       4    7    1        -0.2181199376E+00      0.5342751693E+00
          0                 9           2             4    7     1      -0.3490226650E-02       4    7    1        -0.1822041838E+00      0.4463007497E+00
          0                10           2             4    7     1      -0.2922855833E-02       4    7    1        -0.1525850877E+00      0.3737501911E+00
                                                   Max.-Head-Change                         Max.-Flux-Residual
  Residual-Control   Outer-Iter.   Inner-Iter.     Column Row Layer    Maximum-Head-Change  Column Row Layer    Maximum-Flux-Residual          L2-NORM 
          0                11           2             4    7     1      -0.2452685073E-02       4    7    1        -0.1280402376E+00      0.3136287092E+00
          0                12           2             4    7     1      -0.2061595689E-02       4    7    1        -0.1076237622E+00      0.2636194928E+00
          0                13           2             4    7     1      -0.1735232262E-02       4    7    1        -0.9058624888E-01      0.2218868862E+00
          0                14           2             4    7     1      -0.1462206110E-02       4    7    1        -0.7633316126E-01      0.1869746013E+00
          0                15           2             4    7     1      -0.1233316340E-02       4    7    1        -0.6438417469E-01      0.1577061054E+00
          0                16           2             4    7     1      -0.1041061435E-02       4    7    1        -0.5434767886E-01      0.1331221674E+00
          0                17           2             4    7     1      -0.8793409955E-03       4    7    1        -0.4590520782E-01      0.1124427198E+00
          0                18           2             4    7     1      -0.7431567462E-03       4    7    1        -0.3879583089E-01      0.9502862516E-01
          0                19           2             4    7     1      -0.6283684077E-03       4    7    1        -0.3280340846E-01      0.8035045942E-01
          0                20           2             4    7     1      -0.5314988958E-03       4    7    1        -0.2774642240E-01      0.6796360213E-01
                                                   Max.-Head-Change                         Max.-Flux-Residual
  Residual-Control   Outer-Iter.   Inner-Iter.     Column Row Layer    Maximum-Head-Change  Column Row Layer    Maximum-Flux-Residual          L2-NORM 
          0                21           2             4    7     1      -0.4497355305E-03       4    7    1        -0.2347803923E-01      0.5750839178E-01
          0                22           2             4    7     1      -0.3806193591E-03       4    7    1        -0.1986989153E-01      0.4867039794E-01
          0                23           2             4    7     1      -0.3222223692E-03       4    7    1        -0.1682132909E-01      0.4120308280E-01
          0                24           2             4    7     1      -0.2728374744E-03       4    7    1        -0.1424323503E-01      0.3488815848E-01
          0                25           2             4    7     1      -0.2310643245E-03       4    7    1        -0.1206250527E-01      0.2954655991E-01
          0                26           2             4    7     1      -0.1957093798E-03       4    7    1        -0.1021683214E-01      0.2502566737E-01
          0                27           2             4    7     1      -0.1657776372E-03       4    7    1        -0.8654272427E-02      0.2119824825E-01
          0                28           2             4    7     1      -0.1404551905E-03       4    7    1        -0.7332336875E-02      0.1796022715E-01
          0                29           2             4    7     1      -0.1189830964E-03       4    7    1        -0.6211405496E-02      0.1521455649E-01
          0                30           1             4    7     1      -0.1008161321E-03       4    7    1        -0.5263015411E-02      0.1289151798E-01
          0                31           1             4    7     1      -0.8544250493E-04       4    7    1        -0.4460449120E-02      0.1092566828E-01

    ------------------------------------------------
       NWT REQUIRED           31 OUTER ITERATIONS 
       AND A TOTAL OF         60 INNER ITERATIONS.
    ------------------------------------------------

 NO OUTPUT CONTROL FOR STRESS PERIOD   32   TIME STEP   18
 
 SOLVING FOR HEAD 
                                                   Max.-Head-Change                         Max.-Flux-Residual
  Residual-Control   Outer-Iter.   Inner-Iter.     Column Row Layer    Maximum-Head-Change  Column Row Layer    Maximum-Flux-Residual          L2-NORM 
          0                 1           2             4    7     1      -0.1281259775E+00       4    7    1        -0.6744517505E+01      0.1417519059E+02
          0                 2           2             5    8     1      -0.7751009010E-02       5    8    1        -0.4265859897E+00      0.1027899966E+01
          0                 3           2             4    7     1      -0.1210121677E-01       4    7    1        -0.6323171487E+00      0.1507573685E+01
          0                 4           2             4    7     1      -0.8826397877E-02       5    8    1        -0.4636125195E+00      0.1132672355E+01
          0                 5           2             4    7     1      -0.7339810063E-02       4    7    1        -0.3831730769E+00      0.9381479028E+00
          0                 6           2             4    7     1      -0.6047728501E-02       5    8    1        -0.3157340665E+00      0.7733692327E+00
          0                 7           2             4    7     1      -0.5017563029E-02       4    7    1        -0.2619363661E+00      0.6415968898E+00
          0                 8           2             4    7     1      -0.4178232167E-02       4    7    1        -0.2181199483E+00      0.5342752004E+00
          0                 9           2             4    7     1      -0.3490241911E-02       4    7    1        -0.1822041826E+00      0.4463007459E+00
          0                10           2             4    7     1      -0.2922868634E-02       4    7    1        -0.1525850878E+00      0.3737501909E+00
                                                   Max.-Head-Change                         Max.-Flux-Residual
  Residual-Control   Outer-Iter.   Inner-Iter.     Column Row Layer    Maximum-Head-Change  Column Row Layer    Maximum-Flux-Residual          L2-NORM 
          0                11           2             4    7     1      -0.2452695812E-02       4    7    1        -0.1280402375E+00      0.3136287087E+00
          0                12           2             4    7     1      -0.2061604716E-02       4    7    1        -0.1076237621E+00      0.2636194924E+00
          0                13           2             4    7     1      -0.1735239860E-02       4    7    1        -0.9058624882E-01      0.2218868859E+00
          0                14           2             4    7     1      -0.1462212512E-02       4    7    1        -0.7633316122E-01      0.1869746010E+00
          0                15           2             4    7     1      -0.1233321740E-02       4    7    1        -0.6438417466E-01      0.1577061052E+00
          0                16           2             4    7     1      -0.1041065993E-02       4    7    1        -0.5434767882E-01      0.1331221672E+00
          0                17           2             4    7     1      -0.8793448460E-03       4    7    1        -0.4590520780E-01      0.1124427197E+00
          0                18           2             4    7     1      -0.7431600003E-03       4    7    1        -0.3879583087E-01      0.9502862503E-01
          0                19           2             4    7     1      -0.6283711593E-03       4    7    1        -0.3280340845E-01      0.8035045929E-01
          0                20           2             4    7     1      -0.5315012231E-03       4    7    1        -0.2774642238E-01      0.6796360204E-01
                                                   Max.-Head-Change                         Max.-Flux-Residual
  Residual-Control   Outer-Iter.   Inner-Iter.     Column Row Layer    Maximum-Head-Change  Column Row Layer    Maximum-Flux-Residual          L2-NORM 
          0                21           2             4    7     1      -0.4497374996E-03       4    7    1        -0.2347803922E-01      0.5750839170E-01
          0                22           2             4    7     1      -0.3806210261E-03       4    7    1        -0.1986989152E-01      0.4867039787E-01
          0                23           2             4    7     1      -0.3222237799E-03       4    7    1        -0.1682132906E-01      0.4120308275E-01
          0                24           2             4    7     1      -0.2728386691E-03       4    7    1        -0.1424323501E-01      0.3488815843E-01
          0                25           2             4    7     1      -0.2310653361E-03       4    7    1        -0.1206250525E-01      0.2954655988E-01
          0                26           2             4    7     1      -0.1957102368E-03       4    7    1        -0.1021683214E-01      0.2502566734E-01
          0                27           2             4    7     1      -0.1657783630E-03       4    7    1        -0.8654272424E-02      0.2119824821E-01
          0                28           2             4    7     1      -0.1404558061E-03       4    7    1        -0.7332336883E-02      0.1796022707E-01
          0                29           2             4    7     1      -0.1189836169E-03       4    7    1        -0.6211405468E-02      0.1521455639E-01
          0                30           1             4    7     1      -0.1008165736E-03       4    7    1        -0.5263015416E-02      0.1289151795E-01
          0                31           1             4    7     1      -0.8544287935E-04       4    7    1        -0.4460449115E-02      0.1092566826E-01

    ------------------------------------------------
       NWT REQUIRED           31 OUTER ITERATIONS 
       AND A TOTAL OF         60 INNER ITERATIONS.
    ------------------------------------------------

 NO OUTPUT CONTROL FOR STRESS PERIOD   32   TIME STEP   19
 
 SOLVING FOR HEAD 
                                                   Max.-Head-Change                         Max.-Flux-Residual
  Residual-Control   Outer-Iter.   Inner-Iter.     Column Row Layer    Maximum-Head-Change  Column Row Layer    Maximum-Flux-Residual          L2-NORM 
          0                 1           2             4    7     1      -0.1260307332E+00       4    7    1        -0.6635538973E+01      0.1398723388E+02
          0                 2           2             5    8     1      -0.8003310325E-02       5    8    1        -0.4402676159E+00      0.1061490696E+01
          0                 3           2             4    7     1      -0.1208031252E-01       4    7    1        -0.6312282748E+00      0.1504500225E+01
          0                 4           2             4    7     1      -0.8828532528E-02       5    8    1        -0.4637483588E+00      0.1132982931E+01
          0                 5           2             4    7     1      -0.7339632830E-02       4    7    1        -0.3831622050E+00      0.9381168950E+00
          0                 6           2             4    7     1      -0.6047776107E-02       5    8    1        -0.3157354212E+00      0.7733723309E+00
          0                 7           2             4    7     1      -0.5017583044E-02       4    7    1        -0.2619362573E+00      0.6415965791E+00
          0                 8           2             4    7     1      -0.4178250788E-02       4    7    1        -0.2181199591E+00      0.5342752307E+00
          0                 9           2             4    7     1      -0.3490257271E-02       4    7    1        -0.1822041815E+00      0.4463007422E+00
          0                10           2             4    7     1      -0.2922881515E-02       4    7    1        -0.1525850878E+00      0.3737501907E+00
                                                   Max.-Head-Change                         Max.-Flux-Residual
  Residual-Control   Outer-Iter.   Inner-Iter.     Column Row Layer    Maximum-Head-Change  Column Row Layer    Maximum-Flux-Residual          L2-NORM 
          0                11           2             4    7     1      -0.2452706620E-02       4    7    1        -0.1280402375E+00      0.3136287083E+00
          0                12           2             4    7     1      -0.2061613801E-02       4    7    1        -0.1076237621E+00      0.2636194921E+00
          0                13           2             4    7     1      -0.1735247506E-02       4    7    1        -0.9058624877E-01      0.2218868856E+00
          0                14           2             4    7     1      -0.1462218956E-02       4    7    1        -0.7633316119E-01      0.1869746008E+00
          0                15           2             4    7     1      -0.1233327175E-02       4    7    1        -0.6438417461E-01      0.1577061050E+00
          0                16           2             4    7     1      -0.1041070580E-02       4    7    1        -0.5434767880E-01      0.1331221670E+00
          0                17           2             4    7     1      -0.8793487209E-03       4    7    1        -0.4590520778E-01      0.1124427195E+00
          0                18           2             4    7     1      -0.7431632749E-03       4    7    1        -0.3879583085E-01      0.9502862489E-01
          0                19           2             4    7     1      -0.6283739280E-03       4    7    1        -0.3280340844E-01      0.8035045919E-01
          0                20           2             4    7     1      -0.5315035654E-03       4    7    1        -0.2774642238E-01      0.6796360196E-01
                                                   Max.-Head-Change                         Max.-Flux-Residual
  Residual-Control   Outer-Iter.   Inner-Iter.     Column Row Layer    Maximum-Head-Change  Column Row Layer    Maximum-Flux-Residual          L2-NORM 
          0                21           2             4    7     1      -0.4497394815E-03       4    7    1        -0.2347803920E-01      0.5750839163E-01
          0                22           2             4    7     1      -0.3806227029E-03       4    7    1        -0.1986989150E-01      0.4867039801E-01
          0                23           2             4    7     1      -0.3222251999E-03       4    7    1        -0.1682132907E-01      0.4120308290E-01
          0                24           2             4    7     1      -0.2728398715E-03       4    7    1        -0.1424323501E-01      0.3488815840E-01
          0                25           2             4    7     1      -0.2310663546E-03       4    7    1        -0.1206250524E-01      0.2954656005E-01
          0                26           2             4    7     1      -0.1957110988E-03       4    7    1        -0.1021683211E-01      0.2502566741E-01
          0                27           2             4    7     1      -0.1657790935E-03       4    7    1        -0.8654272419E-02      0.2119824821E-01
          0                28           2             4    7     1      -0.1404564250E-03       4    7    1        -0.7332336883E-02      0.1796022708E-01
          0                29           2             4    7     1      -0.1189841411E-03       4    7    1        -0.6211405467E-02      0.1521455638E-01
          0                30           1             4    7     1      -0.1008170180E-03       4    7    1        -0.5263015420E-02      0.1289151798E-01
          0                31           1             4    7     1      -0.8544325589E-04       4    7    1        -0.4460449118E-02      0.1092566828E-01

    ------------------------------------------------
       NWT REQUIRED           31 OUTER ITERATIONS 
       AND A TOTAL OF         60 INNER ITERATIONS.
    ------------------------------------------------

 NO OUTPUT CONTROL FOR STRESS PERIOD   32   TIME STEP   20
 
 SOLVING FOR HEAD 
                                                   Max.-Head-Change                         Max.-Flux-Residual
  Residual-Control   Outer-Iter.   Inner-Iter.     Column Row Layer    Maximum-Head-Change  Column Row Layer    Maximum-Flux-Residual          L2-NORM 
          0                 1           2             4    7     1      -0.1239400499E+00       4    7    1        -0.6526679033E+01      0.1380804443E+02
          0                 2           2             5    8     1      -0.8245167714E-02       5    8    1        -0.4533767127E+00      0.1094012798E+01
          0                 3           2             4    7     1      -0.1205945419E-01       4    7    1        -0.6301405668E+00      0.1501509851E+01
          0                 4           2             4    7     1      -0.8830662818E-02       5    8    1        -0.4638785079E+00      0.1133285106E+01
          0                 5           2             4    7     1      -0.7339456223E-02       4    7    1        -0.3831513443E+00      0.9380867255E+00
          0                 6           2             4    7     1      -0.6047823808E-02       5    8    1        -0.3157367210E+00      0.7733753463E+00
          0                 7           2             4    7     1      -0.5017603177E-02       4    7    1        -0.2619361485E+00      0.6415962776E+00
          0                 8           2             4    7     1      -0.4178269505E-02       4    7    1        -0.2181199699E+00      0.5342752608E+00
          0                 9           2             4    7     1      -0.3490272710E-02       4    7    1        -0.1822041803E+00      0.4463007392E+00
          0                10           2             4    7     1      -0.2922894464E-02       4    7    1        -0.1525850878E+00      0.3737501910E+00
                                                   Max.-Head-Change                         Max.-Flux-Residual
  Residual-Control   Outer-Iter.   Inner-Iter.     Column Row Layer    Maximum-Head-Change  Column Row Layer    Maximum-Flux-Residual          L2-NORM 
          0                11           2             4    7     1      -0.2452717484E-02       4    7    1        -0.1280402374E+00      0.3136287082E+00
          0                12           2             4    7     1      -0.2061622933E-02       4    7    1        -0.1076237620E+00      0.2636194921E+00
          0                13           2             4    7     1      -0.1735255192E-02       4    7    1        -0.9058624873E-01      0.2218868856E+00
          0                14           2             4    7     1      -0.1462225433E-02       4    7    1        -0.7633316116E-01      0.1869746008E+00
          0                15           2             4    7     1      -0.1233332638E-02       4    7    1        -0.6438417459E-01      0.1577061050E+00
          0                16           2             4    7     1      -0.1041075192E-02       4    7    1        -0.5434767877E-01      0.1331221670E+00
          0                17           2             4    7     1      -0.8793526157E-03       4    7    1        -0.4590520774E-01      0.1124427195E+00
          0                18           2             4    7     1      -0.7431665669E-03       4    7    1        -0.3879583083E-01      0.9502862489E-01
          0                19           2             4    7     1      -0.6283767117E-03       4    7    1        -0.3280340841E-01      0.8035045918E-01
          0                20           2             4    7     1      -0.5315059191E-03       4    7    1        -0.2774642234E-01      0.6796360193E-01
                                                   Max.-Head-Change                         Max.-Flux-Residual
  Residual-Control   Outer-Iter.   Inner-Iter.     Column Row Layer    Maximum-Head-Change  Column Row Layer    Maximum-Flux-Residual          L2-NORM 
          0                21           2             4    7     1      -0.4497414735E-03       4    7    1        -0.2347803920E-01      0.5750839164E-01
          0                22           2             4    7     1      -0.3806243894E-03       4    7    1        -0.1986989151E-01      0.4867039781E-01
          0                23           2             4    7     1      -0.3222266268E-03       4    7    1        -0.1682132905E-01      0.4120308268E-01
          0                24           2             4    7     1      -0.2728410802E-03       4    7    1        -0.1424323501E-01      0.3488815838E-01
          0                25           2             4    7     1      -0.2310673783E-03       4    7    1        -0.1206250524E-01      0.2954655983E-01
          0                26           2             4    7     1      -0.1957119654E-03       4    7    1        -0.1021683210E-01      0.2502566728E-01
          0                27           2             4    7     1      -0.1657798282E-03       4    7    1        -0.8654272426E-02      0.2119824818E-01
          0                28           2             4    7     1      -0.1404570464E-03       4    7    1        -0.7332336858E-02      0.1796022705E-01
          0                29           2             4    7     1      -0.1189846687E-03       4    7    1        -0.6211405490E-02      0.1521455639E-01
          0                30           1             4    7     1      -0.1008174644E-03       4    7    1        -0.5263015407E-02      0.1289151793E-01
          0                31           1             4    7     1      -0.8544363406E-04       4    7    1        -0.4460449115E-02      0.1092566825E-01

    ------------------------------------------------
       NWT REQUIRED           31 OUTER ITERATIONS 
       AND A TOTAL OF         60 INNER ITERATIONS.
    ------------------------------------------------

 NO OUTPUT CONTROL FOR STRESS PERIOD   32   TIME STEP   21
 
 SOLVING FOR HEAD 
                                                   Max.-Head-Change                         Max.-Flux-Residual
  Residual-Control   Outer-Iter.   Inner-Iter.     Column Row Layer    Maximum-Head-Change  Column Row Layer    Maximum-Flux-Residual          L2-NORM 
          0                 1           2             4    7     1      -0.1218561436E+00       4    7    1        -0.6418063209E+01      0.1363708886E+02
          0                 2           2             5    8     1      -0.8477294678E-02       5    8    1        -0.4659489220E+00      0.1125459820E+01
          0                 3           2             4    7     1      -0.1203866389E-01       4    7    1        -0.6290552794E+00      0.1498598968E+01
          0                 4           2             4    7     1      -0.8832786486E-02       5    8    1        -0.4640033473E+00      0.1133579225E+01
          0                 5           2             4    7     1      -0.7339280426E-02       4    7    1        -0.3831405074E+00      0.9380573592E+00
          0                 6           2             4    7     1      -0.6047871550E-02       5    8    1        -0.3157379690E+00      0.7733782821E+00
          0                 7           2             4    7     1      -0.5017623409E-02       4    7    1        -0.2619360401E+00      0.6415959845E+00
          0                 8           2             4    7     1      -0.4178288296E-02       4    7    1        -0.2181199806E+00      0.5342752904E+00
          0                 9           2             4    7     1      -0.3490288212E-02       4    7    1        -0.1822041791E+00      0.4463007365E+00
          0                10           2             4    7     1      -0.2922907466E-02       4    7    1        -0.1525850879E+00      0.3737501915E+00
                                                   Max.-Head-Change                         Max.-Flux-Residual
  Residual-Control   Outer-Iter.   Inner-Iter.     Column Row Layer    Maximum-Head-Change  Column Row Layer    Maximum-Flux-Residual          L2-NORM 
          0                11           2             4    7     1      -0.2452728392E-02       4    7    1        -0.1280402373E+00      0.3136287084E+00
          0                12           2             4    7     1      -0.2061632102E-02       4    7    1        -0.1076237620E+00      0.2636194922E+00
          0                13           2             4    7     1      -0.1735262910E-02       4    7    1        -0.9058624869E-01      0.2218868857E+00
          0                14           2             4    7     1      -0.1462231936E-02       4    7    1        -0.7633316112E-01      0.1869746009E+00
          0                15           2             4    7     1      -0.1233338123E-02       4    7    1        -0.6438417457E-01      0.1577061050E+00
          0                16           2             4    7     1      -0.1041079822E-02       4    7    1        -0.5434767876E-01      0.1331221671E+00
          0                17           2             4    7     1      -0.8793565268E-03       4    7    1        -0.4590520773E-01      0.1124427196E+00
          0                18           2             4    7     1      -0.7431698722E-03       4    7    1        -0.3879583082E-01      0.9502862495E-01
          0                19           2             4    7     1      -0.6283795062E-03       4    7    1        -0.3280340840E-01      0.8035045924E-01
          0                20           2             4    7     1      -0.5315082832E-03       4    7    1        -0.2774642234E-01      0.6796360199E-01
                                                   Max.-Head-Change                         Max.-Flux-Residual
  Residual-Control   Outer-Iter.   Inner-Iter.     Column Row Layer    Maximum-Head-Change  Column Row Layer    Maximum-Flux-Residual          L2-NORM 
          0                21           2             4    7     1      -0.4497434741E-03       4    7    1        -0.2347803919E-01      0.5750839166E-01
          0                22           2             4    7     1      -0.3806260819E-03       4    7    1        -0.1986989148E-01      0.4867039784E-01
          0                23           2             4    7     1      -0.3222280602E-03       4    7    1        -0.1682132904E-01      0.4120308270E-01
          0                24           2             4    7     1      -0.2728422935E-03       4    7    1        -0.1424323499E-01      0.3488815841E-01
          0                25           2             4    7     1      -0.2310684055E-03       4    7    1        -0.1206250523E-01      0.2954655986E-01
          0                26           2             4    7     1      -0.1957128363E-03       4    7    1        -0.1021683212E-01      0.2502566730E-01
          0                27           2             4    7     1      -0.1657805652E-03       4    7    1        -0.8654272419E-02      0.2119824821E-01
          0                28           2             4    7     1      -0.1404576716E-03       4    7    1        -0.7332336877E-02      0.1796022705E-01
          0                29           2             4    7     1      -0.1189851977E-03       4    7    1        -0.6211405478E-02      0.1521455639E-01
          0                30           1             4    7     1      -0.1008179129E-03       4    7    1        -0.5263015410E-02      0.1289151794E-01
          0                31           1             4    7     1      -0.8544401410E-04       4    7    1        -0.4460449108E-02      0.1092566827E-01

    ------------------------------------------------
       NWT REQUIRED           31 OUTER ITERATIONS 
       AND A TOTAL OF         60 INNER ITERATIONS.
    ------------------------------------------------

 NO OUTPUT CONTROL FOR STRESS PERIOD   32   TIME STEP   22
 
 SOLVING FOR HEAD 
                                                   Max.-Head-Change                         Max.-Flux-Residual
  Residual-Control   Outer-Iter.   Inner-Iter.     Column Row Layer    Maximum-Head-Change  Column Row Layer    Maximum-Flux-Residual          L2-NORM 
          0                 1           2             4    7     1      -0.1197809219E+00       4    7    1        -0.6309799138E+01      0.1347382137E+02
          0                 2           2             5    8     1      -0.8700611533E-02       5    8    1        -0.4780161218E+00      0.1155676386E+01
          0                 3           2             4    7     1      -0.1201796060E-01       4    7    1        -0.6279734892E+00      0.1495763519E+01
          0                 4           2             4    7     1      -0.8834901589E-02       5    8    1        -0.4641233228E+00      0.1133865645E+01
          0                 5           2             4    7     1      -0.7339105597E-02       4    7    1        -0.3831297051E+00      0.9380287571E+00
          0                 6           2             4    7     1      -0.6047919287E-02       5    8    1        -0.3157391663E+00      0.7733811405E+00
          0                 7           2             4    7     1      -0.5017643717E-02       4    7    1        -0.2619359320E+00      0.6415956982E+00
          0                 8           2             4    7     1      -0.4178307144E-02       4    7    1        -0.2181199913E+00      0.5342753186E+00
          0                 9           2             4    7     1      -0.3490303761E-02       4    7    1        -0.1822041780E+00      0.4463007333E+00
          0                10           2             4    7     1      -0.2922920508E-02       4    7    1        -0.1525850879E+00      0.3737501915E+00
                                                   Max.-Head-Change                         Max.-Flux-Residual
  Residual-Control   Outer-Iter.   Inner-Iter.     Column Row Layer    Maximum-Head-Change  Column Row Layer    Maximum-Flux-Residual          L2-NORM 
          0                11           2             4    7     1      -0.2452739334E-02       4    7    1        -0.1280402373E+00      0.3136287082E+00
          0                12           2             4    7     1      -0.2061641299E-02       4    7    1        -0.1076237619E+00      0.2636194921E+00
          0                13           2             4    7     1      -0.1735270651E-02       4    7    1        -0.9058624865E-01      0.2218868856E+00
          0                14           2             4    7     1      -0.1462238459E-02       4    7    1        -0.7633316108E-01      0.1869746008E+00
          0                15           2             4    7     1      -0.1233343625E-02       4    7    1        -0.6438417454E-01      0.1577061049E+00
          0                16           2             4    7     1      -0.1041084466E-02       4    7    1        -0.5434767872E-01      0.1331221670E+00
          0                17           2             4    7     1      -0.8793604497E-03       4    7    1        -0.4590520771E-01      0.1124427195E+00
          0                18           2             4    7     1      -0.7431731876E-03       4    7    1        -0.3879583080E-01      0.9502862489E-01
          0                19           2             4    7     1      -0.6283823092E-03       4    7    1        -0.3280340839E-01      0.8035045918E-01
          0                20           2             4    7     1      -0.5315106547E-03       4    7    1        -0.2774642234E-01      0.6796360195E-01
                                                   Max.-Head-Change                         Max.-Flux-Residual
  Residual-Control   Outer-Iter.   Inner-Iter.     Column Row Layer    Maximum-Head-Change  Column Row Layer    Maximum-Flux-Residual          L2-NORM 
          0                21           2             4    7     1      -0.4497454801E-03       4    7    1        -0.2347803918E-01      0.5750839162E-01
          0                22           2             4    7     1      -0.3806277796E-03       4    7    1        -0.1986989148E-01      0.4867039781E-01
          0                23           2             4    7     1      -0.3222294979E-03       4    7    1        -0.1682132906E-01      0.4120308269E-01
          0                24           2             4    7     1      -0.2728435109E-03       4    7    1        -0.1424323500E-01      0.3488815839E-01
          0                25           2             4    7     1      -0.2310694364E-03       4    7    1        -0.1206250523E-01      0.2954655984E-01
          0                26           2             4    7     1      -0.1957137095E-03       4    7    1        -0.1021683211E-01      0.2502566729E-01
          0                27           2             4    7     1      -0.1657813049E-03       4    7    1        -0.8654272411E-02      0.2119824819E-01
          0                28           2             4    7     1      -0.1404582981E-03       4    7    1        -0.7332336857E-02      0.1796022704E-01
          0                29           2             4    7     1      -0.1189857282E-03       4    7    1        -0.6211405459E-02      0.1521455638E-01
          0                30           1             4    7     1      -0.1008183624E-03       4    7    1        -0.5263015405E-02      0.1289151798E-01
          0                31           1             4    7     1      -0.8544439539E-04       4    7    1        -0.4460449120E-02      0.1092566828E-01

    ------------------------------------------------
       NWT REQUIRED           31 OUTER ITERATIONS 
       AND A TOTAL OF         60 INNER ITERATIONS.
    ------------------------------------------------

 NO OUTPUT CONTROL FOR STRESS PERIOD   32   TIME STEP   23
 
 SOLVING FOR HEAD 
                                                   Max.-Head-Change                         Max.-Flux-Residual
  Residual-Control   Outer-Iter.   Inner-Iter.     Column Row Layer    Maximum-Head-Change  Column Row Layer    Maximum-Flux-Residual          L2-NORM 
          0                 1           2             4    7     1      -0.1177161179E+00       4    7    1        -0.6201985709E+01      0.1331792847E+02
          0                 2           2             5    8     1      -0.8915095935E-02       5    8    1        -0.4896081503E+00      0.1185043393E+01
          0                 3           2             4    7     1      -0.1199736165E-01       4    7    1        -0.6268961849E+00      0.1493002095E+01
          0                 4           2             4    7     1      -0.8837006352E-02       5    8    1        -0.4642385147E+00      0.1134144578E+01
          0                 5           2             4    7     1      -0.7338931880E-02       4    7    1        -0.3831189471E+00      0.9380009017E+00
          0                 6           2             4    7     1      -0.6047966976E-02       5    8    1        -0.3157403157E+00      0.7733839244E+00
          0                 7           2             4    7     1      -0.5017664083E-02       4    7    1        -0.2619358243E+00      0.6415954195E+00
          0                 8           2             4    7     1      -0.4178326029E-02       4    7    1        -0.2181200020E+00      0.5342753462E+00
          0                 9           2             4    7     1      -0.3490319344E-02       4    7    1        -0.1822041768E+00      0.4463007303E+00
          0                10           2             4    7     1      -0.2922933576E-02       4    7    1        -0.1525850880E+00      0.3737501916E+00
                                                   Max.-Head-Change                         Max.-Flux-Residual
  Residual-Control   Outer-Iter.   Inner-Iter.     Column Row Layer    Maximum-Head-Change  Column Row Layer    Maximum-Flux-Residual          L2-NORM 
          0                11           2             4    7     1      -0.2452750298E-02       4    7    1        -0.1280402372E+00      0.3136287080E+00
          0                12           2             4    7     1      -0.2061650516E-02       4    7    1        -0.1076237619E+00      0.2636194919E+00
          0                13           2             4    7     1      -0.1735278409E-02       4    7    1        -0.9058624863E-01      0.2218868854E+00
          0                14           2             4    7     1      -0.1462244996E-02       4    7    1        -0.7633316105E-01      0.1869746007E+00
          0                15           2             4    7     1      -0.1233349139E-02       4    7    1        -0.6438417452E-01      0.1577061049E+00
          0                16           2             4    7     1      -0.1041089121E-02       4    7    1        -0.5434767871E-01      0.1331221669E+00
          0                17           2             4    7     1      -0.8793643808E-03       4    7    1        -0.4590520769E-01      0.1124427194E+00
          0                18           2             4    7     1      -0.7431765096E-03       4    7    1        -0.3879583078E-01      0.9502862484E-01
          0                19           2             4    7     1      -0.6283851190E-03       4    7    1        -0.3280340839E-01      0.8035045913E-01
          0                20           2             4    7     1      -0.5315130305E-03       4    7    1        -0.2774642232E-01      0.6796360192E-01
                                                   Max.-Head-Change                         Max.-Flux-Residual
  Residual-Control   Outer-Iter.   Inner-Iter.     Column Row Layer    Maximum-Head-Change  Column Row Layer    Maximum-Flux-Residual          L2-NORM 
          0                21           2             4    7     1      -0.4497474906E-03       4    7    1        -0.2347803917E-01      0.5750839160E-01
          0                22           2             4    7     1      -0.3806294815E-03       4    7    1        -0.1986989149E-01      0.4867039778E-01
          0                23           2             4    7     1      -0.3222309385E-03       4    7    1        -0.1682132905E-01      0.4120308267E-01
          0                24           2             4    7     1      -0.2728447302E-03       4    7    1        -0.1424323499E-01      0.3488815836E-01
          0                25           2             4    7     1      -0.2310704701E-03       4    7    1        -0.1206250525E-01      0.2954655984E-01
          0                26           2             4    7     1      -0.1957145841E-03       4    7    1        -0.1021683209E-01      0.2502566726E-01
          0                27           2             4    7     1      -0.1657820458E-03       4    7    1        -0.8654272398E-02      0.2119824817E-01
          0                28           2             4    7     1      -0.1404589259E-03       4    7    1        -0.7332336861E-02      0.1796022704E-01
          0                29           2             4    7     1      -0.1189862606E-03       4    7    1        -0.6211405477E-02      0.1521455638E-01
          0                30           1             4    7     1      -0.1008188131E-03       4    7    1        -0.5263015400E-02      0.1289151793E-01
          0                31           1             4    7     1      -0.8544477744E-04       4    7    1        -0.4460449112E-02      0.1092566825E-01

    ------------------------------------------------
       NWT REQUIRED           31 OUTER ITERATIONS 
       AND A TOTAL OF         60 INNER ITERATIONS.
    ------------------------------------------------

 NO OUTPUT CONTROL FOR STRESS PERIOD   32   TIME STEP   24
 
 SOLVING FOR HEAD 
                                                   Max.-Head-Change                         Max.-Flux-Residual
  Residual-Control   Outer-Iter.   Inner-Iter.     Column Row Layer    Maximum-Head-Change  Column Row Layer    Maximum-Flux-Residual          L2-NORM 
          0                 1           2             4    7     1      -0.1156634352E+00       4    7    1        -0.6094719983E+01      0.1316905328E+02
          0                 2           2             5    8     1      -0.9111941319E-02       5    8    1        -0.5001246184E+00      0.1213406027E+01
          0                 3           2             4    7     1      -0.1197687122E-01       4    7    1        -0.6258243366E+00      0.1490310578E+01
          0                 4           2             4    7     1      -0.8839101820E-02       5    8    1        -0.4643429966E+00      0.1134416341E+01
          0                 5           2             4    7     1      -0.7338760369E-02       4    7    1        -0.3831082433E+00      0.9379737600E+00
          0                 6           2             4    7     1      -0.6048015498E-02       5    8    1        -0.3157413584E+00      0.7733866371E+00
          0                 7           2             4    7     1      -0.5017685239E-02       4    7    1        -0.2619357172E+00      0.6415951480E+00
          0                 8           2             4    7     1      -0.4178345562E-02       4    7    1        -0.2181200126E+00      0.5342753731E+00
          0                 9           2             4    7     1      -0.3490335469E-02       4    7    1        -0.1822041757E+00      0.4463007275E+00
          0                10           2             4    7     1      -0.2922947099E-02       4    7    1        -0.1525850880E+00      0.3737501917E+00
                                                   Max.-Head-Change                         Max.-Flux-Residual
  Residual-Control   Outer-Iter.   Inner-Iter.     Column Row Layer    Maximum-Head-Change  Column Row Layer    Maximum-Flux-Residual          L2-NORM 
          0                11           2             4    7     1      -0.2452761644E-02       4    7    1        -0.1280402372E+00      0.3136287078E+00
          0                12           2             4    7     1      -0.2061660052E-02       4    7    1        -0.1076237619E+00      0.2636194918E+00
          0                13           2             4    7     1      -0.1735286436E-02       4    7    1        -0.9058624859E-01      0.2218868854E+00
          0                14           2             4    7     1      -0.1462251760E-02       4    7    1        -0.7633316103E-01      0.1869746006E+00
          0                15           2             4    7     1      -0.1233354844E-02       4    7    1        -0.6438417449E-01      0.1577061048E+00
          0                16           2             4    7     1      -0.1041093936E-02       4    7    1        -0.5434767868E-01      0.1331221669E+00
          0                17           2             4    7     1      -0.8793684487E-03       4    7    1        -0.4590520768E-01      0.1124427194E+00
          0                18           2             4    7     1      -0.7431799473E-03       4    7    1        -0.3879583076E-01      0.9502862480E-01
          0                19           2             4    7     1      -0.6283880258E-03       4    7    1        -0.3280340838E-01      0.8035045911E-01
          0                20           2             4    7     1      -0.5315154888E-03       4    7    1        -0.2774642230E-01      0.6796360191E-01
                                                   Max.-Head-Change                         Max.-Flux-Residual
  Residual-Control   Outer-Iter.   Inner-Iter.     Column Row Layer    Maximum-Head-Change  Column Row Layer    Maximum-Flux-Residual          L2-NORM 
          0                21           2             4    7     1      -0.4497495713E-03       4    7    1        -0.2347803917E-01      0.5750839161E-01
          0                22           2             4    7     1      -0.3806312419E-03       4    7    1        -0.1986989147E-01      0.4867039775E-01
          0                23           2             4    7     1      -0.3222324291E-03       4    7    1        -0.1682132905E-01      0.4120308266E-01
          0                24           2             4    7     1      -0.2728459925E-03       4    7    1        -0.1424323498E-01      0.3488815836E-01
          0                25           2             4    7     1      -0.2310715384E-03       4    7    1        -0.1206250522E-01      0.2954655981E-01
          0                26           2             4    7     1      -0.1957154895E-03       4    7    1        -0.1021683210E-01      0.2502566727E-01
          0                27           2             4    7     1      -0.1657828131E-03       4    7    1        -0.8654272417E-02      0.2119824818E-01
          0                28           2             4    7     1      -0.1404595756E-03       4    7    1        -0.7332336846E-02      0.1796022717E-01
          0                29           2             4    7     1      -0.1189868108E-03       4    7    1        -0.6211405467E-02      0.1521455656E-01
          0                30           1             4    7     1      -0.1008192795E-03       4    7    1        -0.5263015397E-02      0.1289151794E-01
          0                31           1             4    7     1      -0.8544517274E-04       4    7    1        -0.4460449111E-02      0.1092566824E-01

    ------------------------------------------------
       NWT REQUIRED           31 OUTER ITERATIONS 
       AND A TOTAL OF         60 INNER ITERATIONS.
    ------------------------------------------------

 NO OUTPUT CONTROL FOR STRESS PERIOD   32   TIME STEP   25
 
 SOLVING FOR HEAD 
                                                   Max.-Head-Change                         Max.-Flux-Residual
  Residual-Control   Outer-Iter.   Inner-Iter.     Column Row Layer    Maximum-Head-Change  Column Row Layer    Maximum-Flux-Residual          L2-NORM 
          0                 1           2             4    7     1      -0.1136247427E+00       4    7    1        -0.5988083955E+01      0.1302689630E+02
          0                 2           2             5    8     1      -0.9322791425E-02       5    8    1        -0.5115287083E+00      0.1241053583E+01
          0                 3           2             4    7     1      -0.1195654794E-01       4    7    1        -0.6247587658E+00      0.1487688421E+01
          0                 4           2             4    7     1      -0.8841179077E-02       5    8    1        -0.4644564041E+00      0.1134681217E+01
          0                 5           2             4    7     1      -0.7338589453E-02       4    7    1        -0.3830976019E+00      0.9379473065E+00
          0                 6           2             4    7     1      -0.6048062950E-02       5    8    1        -0.3157424904E+00      0.7733892812E+00
          0                 7           2             4    7     1      -0.5017705664E-02       4    7    1        -0.2619356107E+00      0.6415948835E+00
          0                 8           2             4    7     1      -0.4178364471E-02       4    7    1        -0.2181200232E+00      0.5342753994E+00
          0                 9           2             4    7     1      -0.3490351074E-02       4    7    1        -0.1822041746E+00      0.4463007247E+00
          0                10           2             4    7     1      -0.2922960186E-02       4    7    1        -0.1525850881E+00      0.3737501919E+00
                                                   Max.-Head-Change                         Max.-Flux-Residual
  Residual-Control   Outer-Iter.   Inner-Iter.     Column Row Layer    Maximum-Head-Change  Column Row Layer    Maximum-Flux-Residual          L2-NORM 
          0                11           2             4    7     1      -0.2452772624E-02       4    7    1        -0.1280402371E+00      0.3136287077E+00
          0                12           2             4    7     1      -0.2061669282E-02       4    7    1        -0.1076237618E+00      0.2636194918E+00
          0                13           2             4    7     1      -0.1735294204E-02       4    7    1        -0.9058624856E-01      0.2218868853E+00
          0                14           2             4    7     1      -0.1462258306E-02       4    7    1        -0.7633316100E-01      0.1869746006E+00
          0                15           2             4    7     1      -0.1233360365E-02       4    7    1        -0.6438417447E-01      0.1577061048E+00
          0                16           2             4    7     1      -0.1041098597E-02       4    7    1        -0.5434767867E-01      0.1331221668E+00
          0                17           2             4    7     1      -0.8793723854E-03       4    7    1        -0.4590520768E-01      0.1124427194E+00
          0                18           2             4    7     1      -0.7431832742E-03       4    7    1        -0.3879583076E-01      0.9502862479E-01
          0                19           2             4    7     1      -0.6283908385E-03       4    7    1        -0.3280340836E-01      0.8035045911E-01
          0                20           2             4    7     1      -0.5315178686E-03       4    7    1        -0.2774642231E-01      0.6796360189E-01
                                                   Max.-Head-Change                         Max.-Flux-Residual
  Residual-Control   Outer-Iter.   Inner-Iter.     Column Row Layer    Maximum-Head-Change  Column Row Layer    Maximum-Flux-Residual          L2-NORM 
          0                21           2             4    7     1      -0.4497515846E-03       4    7    1        -0.2347803916E-01      0.5750839159E-01
          0                22           2             4    7     1      -0.3806329461E-03       4    7    1        -0.1986989146E-01      0.4867039777E-01
          0                23           2             4    7     1      -0.3222338714E-03       4    7    1        -0.1682132903E-01      0.4120308268E-01
          0                24           2             4    7     1      -0.2728472141E-03       4    7    1        -0.1424323498E-01      0.3488815838E-01
          0                25           2             4    7     1      -0.2310725725E-03       4    7    1        -0.1206250521E-01      0.2954655984E-01
          0                26           2             4    7     1      -0.1957163661E-03       4    7    1        -0.1021683211E-01      0.2502566730E-01
          0                27           2             4    7     1      -0.1657835547E-03       4    7    1        -0.8654272391E-02      0.2119824819E-01
          0                28           2             4    7     1      -0.1404602046E-03       4    7    1        -0.7332336860E-02      0.1796022708E-01
          0                29           2             4    7     1      -0.1189873435E-03       4    7    1        -0.6211405464E-02      0.1521455640E-01
          0                30           1             4    7     1      -0.1008197308E-03       4    7    1        -0.5263015390E-02      0.1289151798E-01
          0                31           1             4    7     1      -0.8544555516E-04       4    7    1        -0.4460449105E-02      0.1092566831E-01

    ------------------------------------------------
       NWT REQUIRED           31 OUTER ITERATIONS 
       AND A TOTAL OF         60 INNER ITERATIONS.
    ------------------------------------------------

 NO OUTPUT CONTROL FOR STRESS PERIOD   32   TIME STEP   26
 
 SOLVING FOR HEAD 
                                                   Max.-Head-Change                         Max.-Flux-Residual
  Residual-Control   Outer-Iter.   Inner-Iter.     Column Row Layer    Maximum-Head-Change  Column Row Layer    Maximum-Flux-Residual          L2-NORM 
          0                 1           2             4    7     1      -0.1116008434E+00       4    7    1        -0.5882157970E+01      0.1289109978E+02
          0                 2           2             5    8     1      -0.9515922089E-02       5    8    1        -0.5219476956E+00      0.1267784078E+01
          0                 3           2             4    7     1      -0.1193635817E-01       4    7    1        -0.6237002743E+00      0.1485131072E+01
          0                 4           2             4    7     1      -0.8843242967E-02       5    8    1        -0.4645600013E+00      0.1134939440E+01
          0                 5           2             4    7     1      -0.7338419861E-02       4    7    1        -0.3830870308E+00      0.9379215152E+00
          0                 6           2             4    7     1      -0.6048110258E-02       5    8    1        -0.3157435246E+00      0.7733918592E+00
          0                 7           2             4    7     1      -0.5017726094E-02       4    7    1        -0.2619355050E+00      0.6415946257E+00
          0                 8           2             4    7     1      -0.4178383372E-02       4    7    1        -0.2181200337E+00      0.5342754252E+00
          0                 9           2             4    7     1      -0.3490366673E-02       4    7    1        -0.1822041735E+00      0.4463007221E+00
          0                10           2             4    7     1      -0.2922973269E-02       4    7    1        -0.1525850881E+00      0.3737501921E+00
                                                   Max.-Head-Change                         Max.-Flux-Residual
  Residual-Control   Outer-Iter.   Inner-Iter.     Column Row Layer    Maximum-Head-Change  Column Row Layer    Maximum-Flux-Residual          L2-NORM 
          0                11           2             4    7     1      -0.2452783600E-02       4    7    1        -0.1280402370E+00      0.3136287077E+00
          0                12           2             4    7     1      -0.2061678508E-02       4    7    1        -0.1076237618E+00      0.2636194918E+00
          0                13           2             4    7     1      -0.1735301970E-02       4    7    1        -0.9058624854E-01      0.2218868853E+00
          0                14           2             4    7     1      -0.1462264849E-02       4    7    1        -0.7633316098E-01      0.1869746005E+00
          0                15           2             4    7     1      -0.1233365885E-02       4    7    1        -0.6438417445E-01      0.1577061048E+00
          0                16           2             4    7     1      -0.1041103256E-02       4    7    1        -0.5434767865E-01      0.1331221668E+00
          0                17           2             4    7     1      -0.8793763203E-03       4    7    1        -0.4590520765E-01      0.1124427194E+00
          0                18           2             4    7     1      -0.7431866001E-03       4    7    1        -0.3879583075E-01      0.9502862476E-01
          0                19           2             4    7     1      -0.6283936510E-03       4    7    1        -0.3280340836E-01      0.8035045909E-01
          0                20           2             4    7     1      -0.5315202465E-03       4    7    1        -0.2774642228E-01      0.6796360186E-01
                                                   Max.-Head-Change                         Max.-Flux-Residual
  Residual-Control   Outer-Iter.   Inner-Iter.     Column Row Layer    Maximum-Head-Change  Column Row Layer    Maximum-Flux-Residual          L2-NORM 
          0                21           2             4    7     1      -0.4497535977E-03       4    7    1        -0.2347803917E-01      0.5750839157E-01
          0                22           2             4    7     1      -0.3806346492E-03       4    7    1        -0.1986989144E-01      0.4867039774E-01
          0                23           2             4    7     1      -0.3222353134E-03       4    7    1        -0.1682132903E-01      0.4120308264E-01
          0                24           2             4    7     1      -0.2728484352E-03       4    7    1        -0.1424323497E-01      0.3488815834E-01
          0                25           2             4    7     1      -0.2310736067E-03       4    7    1        -0.1206250520E-01      0.2954655980E-01
          0                26           2             4    7     1      -0.1957172417E-03       4    7    1        -0.1021683209E-01      0.2502566725E-01
          0                27           2             4    7     1      -0.1657842968E-03       4    7    1        -0.8654272395E-02      0.2119824817E-01
          0                28           2             4    7     1      -0.1404608334E-03       4    7    1        -0.7332336855E-02      0.1796022703E-01
          0                29           2             4    7     1      -0.1189878759E-03       4    7    1        -0.6211405450E-02      0.1521455635E-01
          0                30           1             4    7     1      -0.1008201816E-03       4    7    1        -0.5263015381E-02      0.1289151792E-01
          0                31           1             4    7     1      -0.8544593783E-04       4    7    1        -0.4460449120E-02      0.1092566824E-01

    ------------------------------------------------
       NWT REQUIRED           31 OUTER ITERATIONS 
       AND A TOTAL OF         60 INNER ITERATIONS.
    ------------------------------------------------

 NO OUTPUT CONTROL FOR STRESS PERIOD   32   TIME STEP   27
 
 SOLVING FOR HEAD 
                                                   Max.-Head-Change                         Max.-Flux-Residual
  Residual-Control   Outer-Iter.   Inner-Iter.     Column Row Layer    Maximum-Head-Change  Column Row Layer    Maximum-Flux-Residual          L2-NORM 
          0                 1           2             4    7     1      -0.1095931372E+00       4    7    1        -0.5777013985E+01      0.1276130163E+02
          0                 2           2             5    8     1      -0.9702044455E-02       5    8    1        -0.5319814141E+00      0.1293781024E+01
          0                 3           2             4    7     1      -0.1191633036E-01       4    7    1        -0.6226495824E+00      0.1482637159E+01
          0                 4           2             4    7     1      -0.8845290599E-02       5    8    1        -0.4646597853E+00      0.1135191246E+01
          0                 5           2             4    7     1      -0.7338251844E-02       4    7    1        -0.3830765373E+00      0.9378963650E+00
          0                 6           2             4    7     1      -0.6048157368E-02       5    8    1        -0.3157445209E+00      0.7733943744E+00
          0                 7           2             4    7     1      -0.5017746509E-02       4    7    1        -0.2619354000E+00      0.6415943751E+00
          0                 8           2             4    7     1      -0.4178402246E-02       4    7    1        -0.2181200441E+00      0.5342754510E+00
          0                 9           2             4    7     1      -0.3490382250E-02       4    7    1        -0.1822041724E+00      0.4463007202E+00
          0                10           2             4    7     1      -0.2922986333E-02       4    7    1        -0.1525850882E+00      0.3737501929E+00
                                                   Max.-Head-Change                         Max.-Flux-Residual
  Residual-Control   Outer-Iter.   Inner-Iter.     Column Row Layer    Maximum-Head-Change  Column Row Layer    Maximum-Flux-Residual          L2-NORM 
          0                11           2             4    7     1      -0.2452794561E-02       4    7    1        -0.1280402370E+00      0.3136287080E+00
          0                12           2             4    7     1      -0.2061687721E-02       4    7    1        -0.1076237618E+00      0.2636194921E+00
          0                13           2             4    7     1      -0.1735309724E-02       4    7    1        -0.9058624851E-01      0.2218868856E+00
          0                14           2             4    7     1      -0.1462271384E-02       4    7    1        -0.7633316096E-01      0.1869746008E+00
          0                15           2             4    7     1      -0.1233371396E-02       4    7    1        -0.6438417443E-01      0.1577061050E+00
          0                16           2             4    7     1      -0.1041107908E-02       4    7    1        -0.5434767864E-01      0.1331221670E+00
          0                17           2             4    7     1      -0.8793802503E-03       4    7    1        -0.4590520764E-01      0.1124427195E+00
          0                18           2             4    7     1      -0.7431899213E-03       4    7    1        -0.3879583073E-01      0.9502862488E-01
          0                19           2             4    7     1      -0.6283964586E-03       4    7    1        -0.3280340834E-01      0.8035045919E-01
          0                20           2             4    7     1      -0.5315226226E-03       4    7    1        -0.2774642229E-01      0.6796360194E-01
                                                   Max.-Head-Change                         Max.-Flux-Residual
  Residual-Control   Outer-Iter.   Inner-Iter.     Column Row Layer    Maximum-Head-Change  Column Row Layer    Maximum-Flux-Residual          L2-NORM 
          0                21           2             4    7     1      -0.4497556066E-03       4    7    1        -0.2347803914E-01      0.5750839161E-01
          0                22           2             4    7     1      -0.3806363508E-03       4    7    1        -0.1986989147E-01      0.4867039782E-01
          0                23           2             4    7     1      -0.3222367534E-03       4    7    1        -0.1682132902E-01      0.4120308269E-01
          0                24           2             4    7     1      -0.2728496544E-03       4    7    1        -0.1424323497E-01      0.3488815838E-01
          0                25           2             4    7     1      -0.2310746394E-03       4    7    1        -0.1206250521E-01      0.2954655983E-01
          0                26           2             4    7     1      -0.1957181164E-03       4    7    1        -0.1021683210E-01      0.2502566730E-01
          0                27           2             4    7     1      -0.1657850376E-03       4    7    1        -0.8654272397E-02      0.2119824818E-01
          0                28           2             4    7     1      -0.1404614614E-03       4    7    1        -0.7332336861E-02      0.1796022707E-01
          0                29           2             4    7     1      -0.1189884071E-03       4    7    1        -0.6211405433E-02      0.1521455638E-01
          0                30           1             4    7     1      -0.1008206327E-03       4    7    1        -0.5263015396E-02      0.1289151796E-01
          0                31           1             4    7     1      -0.8544631937E-04       4    7    1        -0.4460449096E-02      0.1092566824E-01

    ------------------------------------------------
       NWT REQUIRED           31 OUTER ITERATIONS 
       AND A TOTAL OF         60 INNER ITERATIONS.
    ------------------------------------------------

 NO OUTPUT CONTROL FOR STRESS PERIOD   32   TIME STEP   28
 
 SOLVING FOR HEAD 
                                                   Max.-Head-Change                         Max.-Flux-Residual
  Residual-Control   Outer-Iter.   Inner-Iter.     Column Row Layer    Maximum-Head-Change  Column Row Layer    Maximum-Flux-Residual          L2-NORM 
          0                 1           2             4    7     1      -0.1076027530E+00       4    7    1        -0.5672717020E+01      0.1263714429E+02
          0                 2           2             5    8     1      -0.9881201529E-02       5    8    1        -0.5416526040E+00      0.1318673501E+01
          0                 3           2             4    7     1      -0.1189412968E-01       4    7    1        -0.6214411939E+00      0.1480201570E+01
          0                 4           2             4    7     1      -0.8847743060E-02       5    8    1        -0.4647559826E+00      0.1135436880E+01
          0                 5           2             4    7     1      -0.7338196998E-02       4    7    1        -0.3830644665E+00      0.9378718257E+00
          0                 6           2             4    7     1      -0.6048319889E-02       5    8    1        -0.3157454814E+00      0.7733968276E+00
          0                 7           2             4    7     1      -0.5017860448E-02       4    7    1        -0.2619352792E+00      0.6415941300E+00
          0                 8           2             4    7     1      -0.4178499221E-02       4    7    1        -0.2181200561E+00      0.5342754756E+00
          0                 9           2             4    7     1      -0.3490463048E-02       4    7    1        -0.1822041711E+00      0.4463007178E+00
          0                10           2             4    7     1      -0.2923054017E-02       4    7    1        -0.1525850883E+00      0.3737501932E+00
                                                   Max.-Head-Change                         Max.-Flux-Residual
  Residual-Control   Outer-Iter.   Inner-Iter.     Column Row Layer    Maximum-Head-Change  Column Row Layer    Maximum-Flux-Residual          L2-NORM 
          0                11           2             4    7     1      -0.2452851355E-02       4    7    1        -0.1280402370E+00      0.3136287081E+00
          0                12           2             4    7     1      -0.2061735459E-02       4    7    1        -0.1076237617E+00      0.2636194922E+00
          0                13           2             4    7     1      -0.1735349906E-02       4    7    1        -0.9058624850E-01      0.2218868856E+00
          0                14           2             4    7     1      -0.1462305243E-02       4    7    1        -0.7633316094E-01      0.1869746008E+00
          0                15           2             4    7     1      -0.1233399955E-02       4    7    1        -0.6438417441E-01      0.1577061050E+00
          0                16           2             4    7     1      -0.1041132015E-02       4    7    1        -0.5434767862E-01      0.1331221670E+00
          0                17           2             4    7     1      -0.8794006120E-03       4    7    1        -0.4590520761E-01      0.1124427195E+00
          0                18           2             4    7     1      -0.7432071300E-03       4    7    1        -0.3879583072E-01      0.9502862491E-01
          0                19           2             4    7     1      -0.6284110092E-03       4    7    1        -0.3280340833E-01      0.8035045920E-01
          0                20           2             4    7     1      -0.5315349299E-03       4    7    1        -0.2774642228E-01      0.6796360196E-01
                                                   Max.-Head-Change                         Max.-Flux-Residual
  Residual-Control   Outer-Iter.   Inner-Iter.     Column Row Layer    Maximum-Head-Change  Column Row Layer    Maximum-Flux-Residual          L2-NORM 
          0                21           2             4    7     1      -0.4497660210E-03       4    7    1        -0.2347803914E-01      0.5750839164E-01
          0                22           2             4    7     1      -0.3806451644E-03       4    7    1        -0.1986989146E-01      0.4867039786E-01
          0                23           2             4    7     1      -0.3222442150E-03       4    7    1        -0.1682132901E-01      0.4120308272E-01
          0                24           2             4    7     1      -0.2728559719E-03       4    7    1        -0.1424323495E-01      0.3488815840E-01
          0                25           2             4    7     1      -0.2310799900E-03       4    7    1        -0.1206250520E-01      0.2954655984E-01
          0                26           2             4    7     1      -0.1957226479E-03       4    7    1        -0.1021683208E-01      0.2502566730E-01
          0                27           2             4    7     1      -0.1657888764E-03       4    7    1        -0.8654272398E-02      0.2119824829E-01
          0                28           2             4    7     1      -0.1404647136E-03       4    7    1        -0.7332336862E-02      0.1796022709E-01
          0                29           2             4    7     1      -0.1189911627E-03       4    7    1        -0.6211405447E-02      0.1521455639E-01
          0                30           1             4    7     1      -0.1008229670E-03       4    7    1        -0.5263015387E-02      0.1289151795E-01
          0                31           1             4    7     1      -0.8544829788E-04       4    7    1        -0.4460449105E-02      0.1092566827E-01

    ------------------------------------------------
       NWT REQUIRED           31 OUTER ITERATIONS 
       AND A TOTAL OF         60 INNER ITERATIONS.
    ------------------------------------------------

 NO OUTPUT CONTROL FOR STRESS PERIOD   32   TIME STEP   29
 
 SOLVING FOR HEAD 
                                                   Max.-Head-Change                         Max.-Flux-Residual
  Residual-Control   Outer-Iter.   Inner-Iter.     Column Row Layer    Maximum-Head-Change  Column Row Layer    Maximum-Flux-Residual          L2-NORM 
          0                 1           2             4    7     1      -0.1057025835E+00       4    7    1        -0.5570717045E+01      0.1251836072E+02
          0                 2           2             5    8     1      -0.1005497148E-01       5    8    1        -0.5509814692E+00      0.1343280173E+01
          0                 3           2             4    7     1      -0.1187772709E-01       4    7    1        -0.6205881891E+00      0.1477828388E+01
          0                 4           2             4    7     1      -0.8849427934E-02       5    8    1        -0.4648487918E+00      0.1135676595E+01
          0                 5           2             4    7     1      -0.7338065060E-02       4    7    1        -0.3830559491E+00      0.9378478817E+00
          0                 6           2             4    7     1      -0.6048363229E-02       5    8    1        -0.3157464082E+00      0.7733992214E+00
          0                 7           2             4    7     1      -0.5017881106E-02       4    7    1        -0.2619351940E+00      0.6415938908E+00
          0                 8           2             4    7     1      -0.4178517959E-02       4    7    1        -0.2181200646E+00      0.5342754997E+00
          0                 9           2             4    7     1      -0.3490478546E-02       4    7    1        -0.1822041702E+00      0.4463007155E+00
          0                10           2             4    7     1      -0.2923067011E-02       4    7    1        -0.1525850883E+00      0.3737501936E+00
                                                   Max.-Head-Change                         Max.-Flux-Residual
  Residual-Control   Outer-Iter.   Inner-Iter.     Column Row Layer    Maximum-Head-Change  Column Row Layer    Maximum-Flux-Residual          L2-NORM 
          0                11           2             4    7     1      -0.2452862258E-02       4    7    1        -0.1280402369E+00      0.3136287082E+00
          0                12           2             4    7     1      -0.2061744623E-02       4    7    1        -0.1076237617E+00      0.2636194922E+00
          0                13           2             4    7     1      -0.1735357619E-02       4    7    1        -0.9058624848E-01      0.2218868857E+00
          0                14           2             4    7     1      -0.1462311743E-02       4    7    1        -0.7633316092E-01      0.1869746009E+00
          0                15           2             4    7     1      -0.1233405437E-02       4    7    1        -0.6438417439E-01      0.1577061050E+00
          0                16           2             4    7     1      -0.1041136643E-02       4    7    1        -0.5434767861E-01      0.1331221671E+00
          0                17           2             4    7     1      -0.8794045212E-03       4    7    1        -0.4590520762E-01      0.1124427195E+00
          0                18           2             4    7     1      -0.7432104332E-03       4    7    1        -0.3879583071E-01      0.9502862495E-01
          0                19           2             4    7     1      -0.6284138030E-03       4    7    1        -0.3280340833E-01      0.8035045921E-01
          0                20           2             4    7     1      -0.5315372920E-03       4    7    1        -0.2774642226E-01      0.6796360198E-01
                                                   Max.-Head-Change                         Max.-Flux-Residual
  Residual-Control   Outer-Iter.   Inner-Iter.     Column Row Layer    Maximum-Head-Change  Column Row Layer    Maximum-Flux-Residual          L2-NORM 
          0                21           2             4    7     1      -0.4497680206E-03       4    7    1        -0.2347803915E-01      0.5750839167E-01
          0                22           2             4    7     1      -0.3806468560E-03       4    7    1        -0.1986989144E-01      0.4867039782E-01
          0                23           2             4    7     1      -0.3222456472E-03       4    7    1        -0.1682132901E-01      0.4120308272E-01
          0                24           2             4    7     1      -0.2728571849E-03       4    7    1        -0.1424323496E-01      0.3488815841E-01
          0                25           2             4    7     1      -0.2310810171E-03       4    7    1        -0.1206250520E-01      0.2954655985E-01
          0                26           2             4    7     1      -0.1957235183E-03       4    7    1        -0.1021683209E-01      0.2502566730E-01
          0                27           2             4    7     1      -0.1657896131E-03       4    7    1        -0.8654272376E-02      0.2119824820E-01
          0                28           2             4    7     1      -0.1404653378E-03       4    7    1        -0.7332336847E-02      0.1796022706E-01
          0                29           2             4    7     1      -0.1189916913E-03       4    7    1        -0.6211405448E-02      0.1521455641E-01
          0                30           1             4    7     1      -0.1008234157E-03       4    7    1        -0.5263015406E-02      0.1289151797E-01
          0                31           1             4    7     1      -0.8544867755E-04       4    7    1        -0.4460449088E-02      0.1092566824E-01

    ------------------------------------------------
       NWT REQUIRED           31 OUTER ITERATIONS 
       AND A TOTAL OF         60 INNER ITERATIONS.
    ------------------------------------------------

 NO OUTPUT CONTROL FOR STRESS PERIOD   32   TIME STEP   30



 STREAM LISTING     PERIOD     32   STEP       30

 LAYER ROW COL. STREAM  RCH.  FLOW INTO     FLOW TO   FLOW OUT OF   OVRLND.     DIRECT     STREAM       STREAM     STREAM     STREAM   STREAMBED  STREAMBED
                SEG.NO.  NO.  STRM. RCH.    AQUIFER    STRM. RCH.    RUNOFF     PRECIP       ET          HEAD       DEPTH      WIDTH   CONDCTNC.   GRADIENT

   1    1    1     1     1    1.9000E+01  2.1427E-01   1.8786E+01  0.000E+00  0.000E+00  0.000E+00  1.09413E+03  1.082E+00  1.166E+01  5.249E-02  1.361E+00
   1    2    2     1     2    1.8786E+01  3.3054E-01   1.8455E+01  0.000E+00  0.000E+00  0.000E+00  1.08914E+03  1.077E+00  1.158E+01  8.107E-02  1.359E+00
   1    3    3     1     3    1.8455E+01  2.8064E-01   1.8175E+01  0.000E+00  0.000E+00  0.000E+00  1.08349E+03  1.072E+00  1.149E+01  6.892E-02  1.357E+00
   1    3    4     1     4    1.8175E+01  2.5740E-01   1.7917E+01  0.000E+00  0.000E+00  0.000E+00  1.07848E+03  1.068E+00  1.140E+01  6.328E-02  1.356E+00
   1    4    5     2     1    1.5917E+01  3.0542E-01   1.5612E+01  0.000E+00  0.000E+00  0.000E+00  1.07285E+03  9.157E-01  1.200E+01  7.800E-02  1.305E+00
   1    5    6     2     2    1.5612E+01  2.3438E-01   1.5377E+01  0.000E+00  0.000E+00  0.000E+00  1.06742E+03  9.063E-01  1.200E+01  6.000E-02  1.302E+00
   1    6    6     2     3    1.5377E+01  2.3388E-01   1.5143E+01  0.000E+00  0.000E+00  0.000E+00  1.06269E+03  8.980E-01  1.200E+01  6.000E-02  1.299E+00
   1    7    6     2     4    1.5143E+01  2.3338E-01   1.4910E+01  0.000E+00  0.000E+00  0.000E+00  1.05797E+03  8.897E-01  1.200E+01  6.000E-02  1.297E+00
   1    8    6     2     5    1.4910E+01  2.3289E-01   1.4677E+01  0.000E+00  0.000E+00  0.000E+00  1.05324E+03  8.814E-01  1.200E+01  6.000E-02  1.294E+00
   1    3    5     3     1    2.0000E+00  2.8252E-01   1.7175E+00  0.000E+00  0.000E+00  0.000E+00  1.07555E+03  1.909E+00  9.636E+00  7.227E-02  1.955E+00
   1    3    6     3     2    1.7175E+00  2.4905E-01   1.4684E+00  0.000E+00  0.000E+00  0.000E+00  1.07264E+03  1.727E+00  8.909E+00  6.682E-02  1.864E+00
   1    3    7     3     3    1.4684E+00  1.9718E-01   1.2712E+00  0.000E+00  0.000E+00  0.000E+00  1.06987E+03  1.555E+00  8.218E+00  5.547E-02  1.777E+00
   1    4    8     3     4    1.2712E+00  2.2567E-01   1.0456E+00  0.000E+00  0.000E+00  0.000E+00  1.06682E+03  1.364E+00  7.455E+00  6.709E-02  1.682E+00
   1    5    8     3     5    1.0456E+00  1.5790E-01   8.8768E-01  0.000E+00  0.000E+00  0.000E+00  1.06362E+03  1.164E+00  6.655E+00  4.991E-02  1.582E+00
   1    6    8     3     6    8.8768E-01  5.5980E-02   8.3170E-01  0.000E+00  0.000E+00  0.000E+00  1.06158E+03  1.036E+00  6.145E+00  1.844E-02  1.518E+00
   1    5   10     4     1    1.0000E+01  9.0919E-02   9.9091E+00  0.000E+00  0.000E+00  0.000E+00  1.07836E+03  6.368E-01  1.000E+01  2.500E-02  1.212E+00
   1    5    9     4     2    9.9091E+00  1.8158E-01   9.7275E+00  0.000E+00  0.000E+00  0.000E+00  1.07154E+03  6.315E-01  1.000E+01  5.000E-02  1.211E+00
   1    6    8     4     3    9.7275E+00  1.2689E-01   9.6006E+00  0.000E+00  0.000E+00  0.000E+00  1.06381E+03  6.256E-01  1.000E+01  3.500E-02  1.209E+00
   1    6    8     5     1    1.0432E+01  2.2686E-01   1.0205E+01  0.000E+00  0.000E+00  0.000E+00  1.05868E+03  6.790E-01  1.542E+01  6.166E-02  1.226E+00
   1    7    7     5     2    1.0205E+01  2.7894E-01   9.9265E+00  0.000E+00  0.000E+00  0.000E+00  1.05417E+03  6.732E-01  1.519E+01  7.594E-02  1.224E+00
   1    8    7     5     3    9.9265E+00  1.9221E-01   9.7343E+00  0.000E+00  0.000E+00  0.000E+00  1.04992E+03  6.676E-01  1.497E+01  5.241E-02  1.223E+00
   1    8    6     5     4    9.7343E+00  1.3577E-01   9.5985E+00  0.000E+00  0.000E+00  0.000E+00  1.04691E+03  6.637E-01  1.482E+01  3.706E-02  1.221E+00
   1    9    6     6     1    2.4276E+01  2.5176E-01   2.4024E+01  0.000E+00  0.000E+00  0.000E+00  1.04392E+03  1.196E+00  1.200E+01  6.000E-02  1.399E+00
   1   10    7     6     2    2.4024E+01  2.5131E-01   2.3773E+01  0.000E+00  0.000E+00  0.000E+00  1.03937E+03  1.188E+00  1.200E+01  6.000E-02  1.396E+00
   1   11    7     6     3    2.3773E+01  2.5086E-01   2.3522E+01  0.000E+00  0.000E+00  0.000E+00  1.03482E+03  1.181E+00  1.200E+01  6.000E-02  1.394E+00
   1   12    7     6     4    2.3522E+01  2.5041E-01   2.3271E+01  0.000E+00  0.000E+00  0.000E+00  1.03026E+03  1.173E+00  1.200E+01  6.000E-02  1.391E+00
   1   13    7     6     5    2.3271E+01  6.7861E-03   2.3265E+01  0.000E+00  0.000E+00  0.000E+00  1.02708E+03  1.170E+00  1.200E+01  2.400E-02  9.425E-02
   1   14    9     7     1    1.5000E+02  1.3503E+00   1.4865E+02  0.000E+00  0.000E+00  0.000E+00  1.03987E+03  2.288E+00  5.529E+01  5.593E-01  8.047E-01
   1   13    8     7     2    1.4865E+02  1.9112E+00   1.4674E+02  0.000E+00  0.000E+00  0.000E+00  1.03478E+03  2.279E+00  5.526E+01  6.148E-01  1.036E+00
   1   13    7     7     3    1.4674E+02  1.6155E+00   1.4512E+02  0.000E+00  0.000E+00  0.000E+00  1.02969E+03  2.270E+00  5.521E+01  5.584E-01  9.643E-01
   1   13    6     8     1    1.6839E+02  1.0553E+00   1.6733E+02  0.000E+00  0.000E+00  0.000E+00  1.02481E+03  2.938E+00  4.260E+01  4.342E-01  8.102E-01
   1   13    5     8     2    1.6733E+02  2.9939E-01   1.6703E+02  0.000E+00  0.000E+00  0.000E+00  1.01856E+03  2.934E+00  4.254E+01  4.335E-01  2.302E-01
   1   13    4     8     3    1.6703E+02 -2.0251E+00   1.6906E+02  0.000E+00  0.000E+00  0.000E+00  1.01231E+03  2.939E+00  4.262E+01  4.343E+00 -1.554E-01
   1   13    3     8     4    1.6906E+02 -3.4455E+00   1.7250E+02  0.000E+00  0.000E+00  0.000E+00  1.00608E+03  2.957E+00  4.288E+01  4.370E+00 -2.628E-01
   1   13    2     8     5    1.7250E+02 -2.5276E+00   1.7503E+02  0.000E+00  0.000E+00  0.000E+00  9.99852E+02  2.977E+00  4.316E+01  4.398E+00 -1.916E-01
   1   13    1     8     6    1.7503E+02 -1.9704E+00   1.7700E+02  0.000E+00  0.000E+00  0.000E+00  9.94866E+02  2.991E+00  4.337E+01  2.652E+00 -2.477E-01





UNSATURATED ZONE PACKAGE VOLUMETRIC BUDGET FOR  TIME STEP    30 STRESS PERIOD   32
  ------------------------------------------------------------------------------



     CUMULATIVE VOLUMES      L**3       RATES FOR THIS TIME STEP      L**3/T
     ------------------                 ------------------------

           IN:                                      IN:
           ---                                      ---
        INFILTRATION =  1339048952.0901          INFILTRATION =          88.1754

          OUT:                                     OUT:
          ----                                     ----
              UZF ET =  1122920801.8780                UZF ET =          60.7922
        UZF RECHARGE =   144037931.5316          UZF RECHARGE =       0.0000E+00

            IN - OUT =    72090218.6805              IN - OUT =          27.3832

          STORAGE:                                 STORAGE:
          --------                                 --------
      STORAGE CHANGE =    72090197.2281        STORAGE CHANGE =          27.3832

 PERCENT DISCREPANCY IS DIFFERENCE BETWEEN IN-OUT MINUS CHANGE IN STORAGE
 DIVIDED BY THE AVERAGE OF IN AND OUT TIMES 100

 PERCENT DISCREPANCY =           0.00     PERCENT DISCREPANCY =           0.00






1
  VOLUMETRIC BUDGET FOR AGRICULTURAL FIELDS AT  END OF TIME STEP   30, STRESS PERIOD  32
  ------------------------------------------------------------------------------

     CUMULATIVE VOLUMES      L**3       RATES FOR THIS TIME STEP      L**3/T
     ------------------                 ------------------------

           IN:                                      IN:
           ---                                      ---
               AG WELLS  =  1269875584.0000                 AG WELLS  =          87.3279
      DIVERSION SEGMENTS =           0.0000        DIVERSION SEGMENTS =           0.0000
           GW IRRIGATION =           0.0000             GW IRRIGATION =           0.0000
           SW IRRIGATION =           0.0000             SW IRRIGATION =           0.0000
        SYSTEM LOSSES GW =           0.0000          SYSTEM LOSSES GW =           0.0000
        SYSTEM LOSSES SW =           0.0000          SYSTEM LOSSES SW =           0.0000

                TOTAL IN =  1269875584.0000                  TOTAL IN =          87.3279

          OUT:                                     OUT:
          ----                                     ----
               AG WELLS  =           0.0000                 AG WELLS  =           0.0000
      DIVERSION SEGMENTS =           0.0000        DIVERSION SEGMENTS =           0.0000
           GW IRRIGATION =  1269875584.0000             GW IRRIGATION =          87.3279
           SW IRRIGATION =           0.0000             SW IRRIGATION =           0.0000
        SYSTEM LOSSES GW =           0.0000          SYSTEM LOSSES GW =           0.0000
        SYSTEM LOSSES SW =           0.0000          SYSTEM LOSSES SW =           0.0000

               TOTAL OUT =  1269875584.0000                 TOTAL OUT =          87.3279

                IN - OUT =           0.0000                  IN - OUT =           0.0000

     PERCENT DISCREPANCY =           0.00         PERCENT DISCREPANCY =           0.00



1
  VOLUMETRIC BUDGET FOR ENTIRE MODEL AT END OF TIME STEP   30, STRESS PERIOD  32
  ------------------------------------------------------------------------------

     CUMULATIVE VOLUMES      L**3       RATES FOR THIS TIME STEP      L**3/T
     ------------------                 ------------------------

           IN:                                      IN:
           ---                                      ---
             STORAGE     =  1568807424.0000               STORAGE     =          85.4033
       CONSTANT HEAD     =           0.0000         CONSTANT HEAD     =           0.0000
     HEAD DEP BOUNDS     =    23315158.0000       HEAD DEP BOUNDS     =           0.2867
      STREAM LEAKAGE     =  1003433984.0000        STREAM LEAKAGE     =          11.9670
        UZF RECHARGE     =   144037952.0000          UZF RECHARGE     =           0.0000
               GW ET     =           0.0000                 GW ET     =           0.0000
     SURFACE LEAKAGE     =           0.0000       SURFACE LEAKAGE     =           0.0000
           AG WELLS      =           0.0000             AG WELLS      =           0.0000

                TOTAL IN =  2739594496.0000                  TOTAL IN =          97.6571

          OUT:                                     OUT:
          ----                                     ----
             STORAGE     =   587821504.0000               STORAGE     =       6.8897E-02
       CONSTANT HEAD     =           0.0000         CONSTANT HEAD     =           0.0000
     HEAD DEP BOUNDS     =    23911150.0000       HEAD DEP BOUNDS     =           0.2891
      STREAM LEAKAGE     =   840443264.0000        STREAM LEAKAGE     =           9.9686
        UZF RECHARGE     =           0.0000          UZF RECHARGE     =           0.0000
               GW ET     =    17516984.0000                 GW ET     =           0.0000
     SURFACE LEAKAGE     =           0.0000       SURFACE LEAKAGE     =           0.0000
           AG WELLS      =  1269875584.0000             AG WELLS      =          87.3279

               TOTAL OUT =  2739568384.0000                 TOTAL OUT =          97.6545

                IN - OUT =       26112.0000                  IN - OUT =       2.6474E-03

     PERCENT DISCREPANCY =           0.00         PERCENT DISCREPANCY =           0.00






         TIME SUMMARY AT END OF TIME STEP   30 IN STRESS PERIOD   32
                    SECONDS     MINUTES      HOURS       DAYS        YEARS
                    -----------------------------------------------------------
   TIME STEP LENGTH  87667.      1461.1      24.352      1.0147     2.77799E-03
 STRESS PERIOD TIME 2.63000E+06  43833.      730.56      30.440     8.33397E-02
         TOTAL TIME 8.16164E+07 1.36027E+06  22671.      944.63      2.5863    
1
1
                            STRESS PERIOD NO.   33, LENGTH =   2630000.    
                            -----------------------------------------------

                              NUMBER OF TIME STEPS =    30

                               MULTIPLIER FOR DELT =     1.000

                            INITIAL TIME STEP SIZE =   87666.66    

 REUSING NON-PARAMETER GHB CELLS FROM LAST STRESS PERIOD

      2 GHB CELLS

 REUSING STREAM SEGMENT DATA FROM LAST STRESS PERIOD



            AREAL INFILTRATION RATE
 READING ON UNIT   19 WITH FORMAT: (FREE)              

            1           2           3           4           5           6           7           8           9          10
 ........................................................................................................................
   1   1.0000E-10  2.0000E-10   0.000       0.000       0.000       0.000       0.000       0.000       0.000       0.000    
   2   2.0000E-10  1.0000E-10  2.0000E-10   0.000       0.000      8.0000E-10  8.0000E-10  5.0000E-10   0.000       0.000    
   3    0.000      5.0000E-10  1.0000E-10  1.0000E-10  8.0000E-10  8.0000E-10  5.0000E-10  5.0000E-10   0.000       0.000    
   4   8.0000E-10  5.0000E-10  1.0000E-10  1.0000E-10  1.0000E-10  1.0000E-10  1.0000E-10  1.0000E-10  2.0000E-10   0.000    
   5   8.0000E-10  5.0000E-10  1.0000E-10  1.0000E-10  1.0000E-10  1.0000E-10  1.0000E-10  1.0000E-10  1.0000E-10  1.0000E-10
   6   8.0000E-10  5.0000E-10  5.0000E-10  2.0000E-10  2.0000E-10  1.0000E-10  1.0000E-10  1.0000E-10  1.0000E-10  5.0000E-10
   7   8.0000E-10  5.0000E-10  5.0000E-10  2.0000E-10  2.0000E-10  1.0000E-10  1.0000E-10  2.0000E-10  2.0000E-10   0.000    
   8    0.000      5.0000E-10  5.0000E-10  2.0000E-10  2.0000E-10  1.0000E-10  1.0000E-10  2.0000E-10  5.0000E-10   0.000    
   9    0.000      5.0000E-10  5.0000E-10  2.0000E-10  2.0000E-10  1.0000E-10  1.0000E-10  2.0000E-10  5.0000E-10   0.000    
  10    0.000      5.0000E-10  5.0000E-10  2.0000E-10  2.0000E-10  1.0000E-10  1.0000E-10  2.0000E-10  5.0000E-10  8.0000E-10
  11    0.000      1.0000E-10  1.0000E-10  1.0000E-10  1.0000E-10  1.0000E-10  1.0000E-10  2.0000E-10  5.0000E-10   0.000    
  12   1.0000E-10  1.0000E-10  1.0000E-10  1.0000E-10  1.0000E-10  1.0000E-10  1.0000E-10  1.0000E-10  2.0000E-10   0.000    
  13   1.0000E-10  1.0000E-10  2.0000E-10  2.0000E-10  2.0000E-10  2.0000E-10  2.0000E-10  1.0000E-10  1.0000E-10   0.000    
  14    0.000      2.0000E-10  5.0000E-10  5.0000E-10  5.0000E-10  5.0000E-10  5.0000E-10  2.0000E-10  1.0000E-10   0.000    
  15    0.000       0.000      8.0000E-10  8.0000E-10  8.0000E-10  8.0000E-10   0.000       0.000       0.000       0.000    

                  ET RATE =  3.250000E-07

 USING ET EXTINCTION DEPTH FROM PREVIOUS STRESS PERIOD. CURRENT PERIOD IS:      33

 USING EXTINCTION WATER CONTENT FROM PREVIOUS STRESS PERIOD. CURRENT PERIOD IS:      33

 USING AIR ENTRY PRESSURE FROM PREVIOUS STRESS PERIOD. CURRENT PERIOD IS:      33

 USING ROOT PRESSURE HEAD FROM PREVIOUS STRESS PERIOD. CURRENT PERIOD IS:      33

 USING ROOT ACTIVITY FROM PREVIOUS STRESS PERIOD. CURRENT PERIOD IS:      33

 PROCESSING AG STRESS PERIOD DATA

 READING AG STRESS PERIOD DATA

 READING IRRIGATION WELL

 END PROCESSING AG STRESS PERIOD DATA OPTIONS
 
 SOLVING FOR HEAD 
                                                   Max.-Head-Change                         Max.-Flux-Residual
  Residual-Control   Outer-Iter.   Inner-Iter.     Column Row Layer    Maximum-Head-Change  Column Row Layer    Maximum-Flux-Residual          L2-NORM 
          0                 1           2             4    7     1      -0.6787387361E-01       4    7    1        -0.3595681193E+01      0.9597148623E+01
          0                 2           2             4    7     1       0.6602153401E-02       4    7    1         0.3595595406E+00      0.9597037098E+00
          0                 3           2             4    7     1      -0.4495833801E-03       4    7    1        -0.2516925988E-01      0.6717939010E-01
          0                 4           1             4    7     1       0.1788933750E-04       4    7    1         0.1029423778E-02      0.2747640039E-02

    ------------------------------------------------
       NWT REQUIRED            4 OUTER ITERATIONS 
       AND A TOTAL OF          7 INNER ITERATIONS.
    ------------------------------------------------

 NO OUTPUT CONTROL FOR STRESS PERIOD   33   TIME STEP    1
 
 SOLVING FOR HEAD 
                                                   Max.-Head-Change                         Max.-Flux-Residual
  Residual-Control   Outer-Iter.   Inner-Iter.     Column Row Layer    Maximum-Head-Change  Column Row Layer    Maximum-Flux-Residual          L2-NORM 
          0                 1           2             4    7     1      -0.6661062598E-01       4    7    1        -0.3526509411E+01      0.9472697426E+01
          0                 2           2             4    7     1       0.6479279318E-02       4    7    1         0.3526427514E+00      0.9472595132E+00
          0                 3           2             4    7     1      -0.4412160571E-03       4    7    1        -0.2468508075E-01      0.6630828600E-01
          0                 4           1             4    7     1       0.1755639378E-04       4    7    1         0.1009620837E-02      0.2712013670E-02

    ------------------------------------------------
       NWT REQUIRED            4 OUTER ITERATIONS 
       AND A TOTAL OF          7 INNER ITERATIONS.
    ------------------------------------------------

 NO OUTPUT CONTROL FOR STRESS PERIOD   33   TIME STEP    2
 
 SOLVING FOR HEAD 
                                                   Max.-Head-Change                         Max.-Flux-Residual
  Residual-Control   Outer-Iter.   Inner-Iter.     Column Row Layer    Maximum-Head-Change  Column Row Layer    Maximum-Flux-Residual          L2-NORM 
          0                 1           2             4    7     1      -0.6541196192E-01       4    7    1        -0.3460872556E+01      0.9358855888E+01
          0                 2           2             4    7     1       0.6362687221E-02       4    7    1         0.3460794374E+00      0.9358761780E+00
          0                 3           2             4    7     1      -0.4332765164E-03       4    7    1        -0.2422564505E-01      0.6551144643E-01
          0                 4           1             4    7     1       0.1724047248E-04       4    7    1         0.9908299162E-03      0.2679421807E-02

    ------------------------------------------------
       NWT REQUIRED            4 OUTER ITERATIONS 
       AND A TOTAL OF          7 INNER ITERATIONS.
    ------------------------------------------------

 NO OUTPUT CONTROL FOR STRESS PERIOD   33   TIME STEP    3
 
 SOLVING FOR HEAD 
                                                   Max.-Head-Change                         Max.-Flux-Residual
  Residual-Control   Outer-Iter.   Inner-Iter.     Column Row Layer    Maximum-Head-Change  Column Row Layer    Maximum-Flux-Residual          L2-NORM 
          0                 1           2             4    7     1      -0.6427455296E-01       4    7    1        -0.3398591595E+01      0.9254487094E+01
          0                 2           2             4    7     1       0.6252053344E-02       4    7    1         0.3398516956E+00      0.9254400263E+00
          0                 3           2             4    7     1      -0.4257427107E-03       4    7    1        -0.2378969959E-01      0.6478090678E-01
          0                 4           1             4    7     1       0.1694069575E-04       4    7    1         0.9729997319E-03      0.2649542690E-02

    ------------------------------------------------
       NWT REQUIRED            4 OUTER ITERATIONS 
       AND A TOTAL OF          7 INNER ITERATIONS.
    ------------------------------------------------

 NO OUTPUT CONTROL FOR STRESS PERIOD   33   TIME STEP    4
 
 SOLVING FOR HEAD 
                                                   Max.-Head-Change                         Max.-Flux-Residual
  Residual-Control   Outer-Iter.   Inner-Iter.     Column Row Layer    Maximum-Head-Change  Column Row Layer    Maximum-Flux-Residual          L2-NORM 
          0                 1           2             4    7     1      -0.6319520891E-01       4    7    1        -0.3339493942E+01      0.9158584416E+01
          0                 2           2             4    7     1       0.6147067375E-02       4    7    1         0.3339422683E+00      0.9158503991E+00
          0                 3           2             4    7     1      -0.4185935087E-03       4    7    1        -0.2337603630E-01      0.6410962629E-01
          0                 4           1             4    7     1       0.1665622258E-04       4    7    1         0.9560809017E-03      0.2622087772E-02

    ------------------------------------------------
       NWT REQUIRED            4 OUTER ITERATIONS 
       AND A TOTAL OF          7 INNER ITERATIONS.
    ------------------------------------------------

 NO OUTPUT CONTROL FOR STRESS PERIOD   33   TIME STEP    5
 
 SOLVING FOR HEAD 
                                                   Max.-Head-Change                         Max.-Flux-Residual
  Residual-Control   Outer-Iter.   Inner-Iter.     Column Row Layer    Maximum-Head-Change  Column Row Layer    Maximum-Flux-Residual          L2-NORM 
          0                 1           2             4    7     1      -0.6217100395E-01       4    7    1        -0.3283421389E+01      0.9070256940E+01
          0                 2           2             4    7     1       0.6047444717E-02       4    7    1         0.3283353349E+00      0.9070182258E+00
          0                 3           2             4    7     1      -0.4118095303E-03       4    7    1        -0.2298354775E-01      0.6349136937E-01
          0                 4           1             4    7     1       0.1638628175E-04       4    7    1         0.9400281042E-03      0.2596799560E-02

    ------------------------------------------------
       NWT REQUIRED            4 OUTER ITERATIONS 
       AND A TOTAL OF          7 INNER ITERATIONS.
    ------------------------------------------------

 NO OUTPUT CONTROL FOR STRESS PERIOD   33   TIME STEP    6
 
 SOLVING FOR HEAD 
                                                   Max.-Head-Change                         Max.-Flux-Residual
  Residual-Control   Outer-Iter.   Inner-Iter.     Column Row Layer    Maximum-Head-Change  Column Row Layer    Maximum-Flux-Residual          L2-NORM 
          0                 1           2             4    7     1      -0.6119874302E-01       4    7    1        -0.3230200612E+01      0.8988697780E+01
          0                 2           2             4    7     1       0.5952874585E-02       4    7    1         0.3230135636E+00      0.8988628158E+00
          0                 3           2             4    7     1      -0.4053696125E-03       4    7    1        -0.2261102070E-01      0.6292048521E-01
          0                 4           1             4    7     1       0.1613003154E-04       4    7    1         0.9247917374E-03      0.2573451782E-02

    ------------------------------------------------
       NWT REQUIRED            4 OUTER ITERATIONS 
       AND A TOTAL OF          7 INNER ITERATIONS.
    ------------------------------------------------

 NO OUTPUT CONTROL FOR STRESS PERIOD   33   TIME STEP    7
 
 SOLVING FOR HEAD 
                                                   Max.-Head-Change                         Max.-Flux-Residual
  Residual-Control   Outer-Iter.   Inner-Iter.     Column Row Layer    Maximum-Head-Change  Column Row Layer    Maximum-Flux-Residual          L2-NORM 
          0                 1           2             4    7     1      -0.6027563975E-01       4    7    1        -0.3179680359E+01      0.8913196917E+01
          0                 2           2             4    7     1       0.5863085944E-02       4    7    1         0.3179618298E+00      0.8913131808E+00
          0                 3           2             4    7     1      -0.3992552986E-03       4    7    1        -0.2225739642E-01      0.6239200598E-01
          0                 4           1             4    7     1       0.1588673756E-04       4    7    1         0.9103285070E-03      0.2551836217E-02

    ------------------------------------------------
       NWT REQUIRED            4 OUTER ITERATIONS 
       AND A TOTAL OF          7 INNER ITERATIONS.
    ------------------------------------------------

 NO OUTPUT CONTROL FOR STRESS PERIOD   33   TIME STEP    8
 
 SOLVING FOR HEAD 
                                                   Max.-Head-Change                         Max.-Flux-Residual
  Residual-Control   Outer-Iter.   Inner-Iter.     Column Row Layer    Maximum-Head-Change  Column Row Layer    Maximum-Flux-Residual          L2-NORM 
          0                 1           2             4    7     1      -0.5939916553E-01       4    7    1        -0.3131723356E+01      0.8843116415E+01
          0                 2           2             4    7     1       0.5777832840E-02       4    7    1         0.3131664064E+00      0.8843055312E+00
          0                 3           2             4    7     1      -0.3934498398E-03       4    7    1        -0.2192171402E-01      0.6190146682E-01
          0                 4           1             4    7     1       0.1565573300E-04       4    7    1         0.8965990928E-03      0.2531773320E-02

    ------------------------------------------------
       NWT REQUIRED            4 OUTER ITERATIONS 
       AND A TOTAL OF          7 INNER ITERATIONS.
    ------------------------------------------------

 NO OUTPUT CONTROL FOR STRESS PERIOD   33   TIME STEP    9
 
 SOLVING FOR HEAD 
                                                   Max.-Head-Change                         Max.-Flux-Residual
  Residual-Control   Outer-Iter.   Inner-Iter.     Column Row Layer    Maximum-Head-Change  Column Row Layer    Maximum-Flux-Residual          L2-NORM 
          0                 1           2             4    7     1      -0.5856665447E-01       4    7    1        -0.3086184086E+01      0.8777914068E+01
          0                 2           2             4    7     1       0.5696855957E-02       4    7    1         0.3086127425E+00      0.8777856539E+00
          0                 3           2             4    7     1      -0.3879355778E-03       4    7    1        -0.2160295492E-01      0.6144507156E-01
          0                 4           1             4    7     1       0.1543631591E-04       4    7    1         0.8835618446E-03      0.2513107053E-02

    ------------------------------------------------
       NWT REQUIRED            4 OUTER ITERATIONS 
       AND A TOTAL OF          7 INNER ITERATIONS.
    ------------------------------------------------

 NO OUTPUT CONTROL FOR STRESS PERIOD   33   TIME STEP   10
 
 SOLVING FOR HEAD 
                                                   Max.-Head-Change                         Max.-Flux-Residual
  Residual-Control   Outer-Iter.   Inner-Iter.     Column Row Layer    Maximum-Head-Change  Column Row Layer    Maximum-Flux-Residual          L2-NORM 
          0                 1           2             4    7     1      -0.5777556634E-01       4    7    1        -0.3042924321E+01      0.8717079723E+01
          0                 2           2             4    7     1       0.5619908210E-02       4    7    1         0.3042870157E+00      0.8717025368E+00
          0                 3           2             4    7     1      -0.3826956868E-03       4    7    1        -0.2130015156E-01      0.6101925116E-01
          0                 4           1             4    7     1       0.1522781580E-04       4    7    1         0.8711771743E-03      0.2495690936E-02

    ------------------------------------------------
       NWT REQUIRED            4 OUTER ITERATIONS 
       AND A TOTAL OF          7 INNER ITERATIONS.
    ------------------------------------------------

 NO OUTPUT CONTROL FOR STRESS PERIOD   33   TIME STEP   11
 
 SOLVING FOR HEAD 
                                                   Max.-Head-Change                         Max.-Flux-Residual
  Residual-Control   Outer-Iter.   Inner-Iter.     Column Row Layer    Maximum-Head-Change  Column Row Layer    Maximum-Flux-Residual          L2-NORM 
          0                 1           2             4    7     1      -0.5702362050E-01       4    7    1        -0.3001819552E+01      0.8660154714E+01
          0                 2           2             4    7     1       0.5546767760E-02       4    7    1         0.3001767757E+00      0.8660103384E+00
          0                 3           2             4    7     1      -0.3777150602E-03       4    7    1        -0.2101243239E-01      0.6062079339E-01
          0                 4           1             4    7     1       0.1502963215E-04       4    7    1         0.8594094506E-03      0.2479393451E-02

    ------------------------------------------------
       NWT REQUIRED            4 OUTER ITERATIONS 
       AND A TOTAL OF          7 INNER ITERATIONS.
    ------------------------------------------------

 NO OUTPUT CONTROL FOR STRESS PERIOD   33   TIME STEP   12
 
 SOLVING FOR HEAD 
                                                   Max.-Head-Change                         Max.-Flux-Residual
  Residual-Control   Outer-Iter.   Inner-Iter.     Column Row Layer    Maximum-Head-Change  Column Row Layer    Maximum-Flux-Residual          L2-NORM 
          0                 1           2             4    7     1      -0.5630878187E-01       4    7    1        -0.2962758725E+01      0.8606767562E+01
          0                 2           2             4    7     1       0.5477236656E-02       4    7    1         0.2962709174E+00      0.8606718753E+00
          0                 3           2             4    7     1      -0.3729802185E-03       4    7    1        -0.2073902006E-01      0.6024709820E-01
          0                 4           1             4    7     1       0.1484122848E-04       4    7    1         0.8482268850E-03      0.2464109113E-02

    ------------------------------------------------
       NWT REQUIRED            4 OUTER ITERATIONS 
       AND A TOTAL OF          7 INNER ITERATIONS.
    ------------------------------------------------

 NO OUTPUT CONTROL FOR STRESS PERIOD   33   TIME STEP   13
 
 SOLVING FOR HEAD 
                                                   Max.-Head-Change                         Max.-Flux-Residual
  Residual-Control   Outer-Iter.   Inner-Iter.     Column Row Layer    Maximum-Head-Change  Column Row Layer    Maximum-Flux-Residual          L2-NORM 
          0                 1           2             4    7     1      -0.5562859593E-01       4    7    1        -0.2925607521E+01      0.8556546265E+01
          0                 2           2             4    7     1       0.5411076147E-02       4    7    1         0.2925560096E+00      0.8556499771E+00
          0                 3           2             4    7     1      -0.3684749031E-03       4    7    1        -0.2047897440E-01      0.5989556300E-01
          0                 4           1             4    7     1       0.1466195765E-04       4    7    1         0.8375909938E-03      0.2449731589E-02

    ------------------------------------------------
       NWT REQUIRED            4 OUTER ITERATIONS 
       AND A TOTAL OF          7 INNER ITERATIONS.
    ------------------------------------------------

 NO OUTPUT CONTROL FOR STRESS PERIOD   33   TIME STEP   14
 
 SOLVING FOR HEAD 
                                                   Max.-Head-Change                         Max.-Flux-Residual
  Residual-Control   Outer-Iter.   Inner-Iter.     Column Row Layer    Maximum-Head-Change  Column Row Layer    Maximum-Flux-Residual          L2-NORM 
          0                 1           2             4    7     1      -0.5498140011E-01       4    7    1        -0.2890274667E+01      0.8509199962E+01
          0                 2           2             4    7     1       0.5348124518E-02       4    7    1         0.2890229256E+00      0.8509155855E+00
          0                 3           2             4    7     1      -0.3641881024E-03       4    7    1        -0.2023165648E-01      0.5956415580E-01
          0                 4           1             4    7     1       0.1449138230E-04       4    7    1         0.8274757015E-03      0.2436177397E-02

    ------------------------------------------------
       NWT REQUIRED            4 OUTER ITERATIONS 
       AND A TOTAL OF          7 INNER ITERATIONS.
    ------------------------------------------------

 NO OUTPUT CONTROL FOR STRESS PERIOD   33   TIME STEP   15
 
 SOLVING FOR HEAD 
                                                   Max.-Head-Change                         Max.-Flux-Residual
  Residual-Control   Outer-Iter.   Inner-Iter.     Column Row Layer    Maximum-Head-Change  Column Row Layer    Maximum-Flux-Residual          L2-NORM 
          0                 1           2             4    7     1      -0.5436508581E-01       4    7    1        -0.2856645164E+01      0.8464430974E+01
          0                 2           2             4    7     1       0.5288176666E-02       4    7    1         0.2856601658E+00      0.8464388654E+00
          0                 3           2             4    7     1      -0.3601058497E-03       4    7    1        -0.1999626142E-01      0.5925078008E-01
          0                 4           1             4    7     1       0.1432894577E-04       4    7    1         0.8178480384E-03      0.2423361311E-02

    ------------------------------------------------
       NWT REQUIRED            4 OUTER ITERATIONS 
       AND A TOTAL OF          7 INNER ITERATIONS.
    ------------------------------------------------

 NO OUTPUT CONTROL FOR STRESS PERIOD   33   TIME STEP   16
 
 SOLVING FOR HEAD 
                                                   Max.-Head-Change                         Max.-Flux-Residual
  Residual-Control   Outer-Iter.   Inner-Iter.     Column Row Layer    Maximum-Head-Change  Column Row Layer    Maximum-Flux-Residual          L2-NORM 
          0                 1           2             4    7     1      -0.5377792945E-01       4    7    1        -0.2824624077E+01      0.8421994758E+01
          0                 2           2             4    7     1       0.5231064940E-02       4    7    1         0.2824582372E+00      0.8421954071E+00
          0                 3           2             4    7     1      -0.3562167270E-03       4    7    1        -0.1977212459E-01      0.5895373682E-01
          0                 4           1             4    7     1       0.1417419367E-04       4    7    1         0.8086808202E-03      0.2411211097E-02

    ------------------------------------------------
       NWT REQUIRED            4 OUTER ITERATIONS 
       AND A TOTAL OF          7 INNER ITERATIONS.
    ------------------------------------------------

 NO OUTPUT CONTROL FOR STRESS PERIOD   33   TIME STEP   17
 
 SOLVING FOR HEAD 
                                                   Max.-Head-Change                         Max.-Flux-Residual
  Residual-Control   Outer-Iter.   Inner-Iter.     Column Row Layer    Maximum-Head-Change  Column Row Layer    Maximum-Flux-Residual          L2-NORM 
          0                 1           2             4    7     1      -0.5321816520E-01       4    7    1        -0.2794114839E+01      0.8381677404E+01
          0                 2           2             4    7     1       0.5176617580E-02       4    7    1         0.2794074837E+00      0.8381638157E+00
          0                 3           2             4    7     1      -0.3525090407E-03       4    7    1        -0.1955857017E-01      0.5867152327E-01
          0                 4           1             4    7     1       0.1402666214E-04       4    7    1         0.7999464751E-03      0.2399668199E-02

    ------------------------------------------------
       NWT REQUIRED            4 OUTER ITERATIONS 
       AND A TOTAL OF          7 INNER ITERATIONS.
    ------------------------------------------------

 NO OUTPUT CONTROL FOR STRESS PERIOD   33   TIME STEP   18
 
 SOLVING FOR HEAD 
                                                   Max.-Head-Change                         Max.-Flux-Residual
  Residual-Control   Outer-Iter.   Inner-Iter.     Column Row Layer    Maximum-Head-Change  Column Row Layer    Maximum-Flux-Residual          L2-NORM 
          0                 1           2             4    7     1      -0.5268412982E-01       4    7    1        -0.2765025894E+01      0.8343273737E+01
          0                 2           2             4    7     1       0.5124672806E-02       4    7    1         0.2764987501E+00      0.8343235783E+00
          0                 3           2             4    7     1      -0.3489717715E-03       4    7    1        -0.1935495721E-01      0.5840270522E-01
          0                 4           1             4    7     1       0.1388591071E-04       4    7    1         0.7916186778E-03      0.2388673955E-02

    ------------------------------------------------
       NWT REQUIRED            4 OUTER ITERATIONS 
       AND A TOTAL OF          7 INNER ITERATIONS.
    ------------------------------------------------

 NO OUTPUT CONTROL FOR STRESS PERIOD   33   TIME STEP   19
 
 SOLVING FOR HEAD 
                                                   Max.-Head-Change                         Max.-Flux-Residual
  Residual-Control   Outer-Iter.   Inner-Iter.     Column Row Layer    Maximum-Head-Change  Column Row Layer    Maximum-Flux-Residual          L2-NORM 
          0                 1           2             4    7     1      -0.5217451451E-01       4    7    1        -0.2737285389E+01      0.8306607507E+01
          0                 2           2             4    7     1       0.5075103310E-02       4    7    1         0.2737248516E+00      0.8306570635E+00
          0                 3           2             4    7     1      -0.3455962507E-03       4    7    1        -0.1916078277E-01      0.5814604752E-01
          0                 4           1             4    7     1       0.1375159548E-04       4    7    1         0.7836769314E-03      0.2378292656E-02

    ------------------------------------------------
       NWT REQUIRED            4 OUTER ITERATIONS 
       AND A TOTAL OF          7 INNER ITERATIONS.
    ------------------------------------------------

 NO OUTPUT CONTROL FOR STRESS PERIOD   33   TIME STEP   20
 
 SOLVING FOR HEAD 
                                                   Max.-Head-Change                         Max.-Flux-Residual
  Residual-Control   Outer-Iter.   Inner-Iter.     Column Row Layer    Maximum-Head-Change  Column Row Layer    Maximum-Flux-Residual          L2-NORM 
          0                 1           2             4    7     1      -0.5168768983E-01       4    7    1        -0.2710803879E+01      0.8271520564E+01
          0                 2           2             4    7     1       0.5027750601E-02       4    7    1         0.2710768441E+00      0.8271484869E+00
          0                 3           2             4    7     1      -0.3423716871E-03       4    7    1        -0.1897542081E-01      0.5790044645E-01
          0                 4           1             4    7     1       0.1362328761E-04       4    7    1         0.7760956510E-03      0.2368130986E-02

    ------------------------------------------------
       NWT REQUIRED            4 OUTER ITERATIONS 
       AND A TOTAL OF          7 INNER ITERATIONS.
    ------------------------------------------------

 NO OUTPUT CONTROL FOR STRESS PERIOD   33   TIME STEP   21
 
 SOLVING FOR HEAD 
                                                   Max.-Head-Change                         Max.-Flux-Residual
  Residual-Control   Outer-Iter.   Inner-Iter.     Column Row Layer    Maximum-Head-Change  Column Row Layer    Maximum-Flux-Residual          L2-NORM 
          0                 1           2             4    7     1      -0.5122238829E-01       4    7    1        -0.2685511266E+01      0.8237888107E+01
          0                 2           2             4    7     1       0.4982491393E-02       4    7    1         0.2685477182E+00      0.8237853363E+00
          0                 3           2             4    7     1      -0.3392896838E-03       4    7    1        -0.1879838064E-01      0.5766502340E-01
          0                 4           1             4    7     1       0.1350065173E-04       4    7    1         0.7688546957E-03      0.2358502426E-02

    ------------------------------------------------
       NWT REQUIRED            4 OUTER ITERATIONS 
       AND A TOTAL OF          7 INNER ITERATIONS.
    ------------------------------------------------

 NO OUTPUT CONTROL FOR STRESS PERIOD   33   TIME STEP   22
 
 SOLVING FOR HEAD 
                                                   Max.-Head-Change                         Max.-Flux-Residual
  Residual-Control   Outer-Iter.   Inner-Iter.     Column Row Layer    Maximum-Head-Change  Column Row Layer    Maximum-Flux-Residual          L2-NORM 
          0                 1           2             4    7     1      -0.5077727812E-01       4    7    1        -0.2661334636E+01      0.8205560630E+01
          0                 2           2             4    7     1       0.4939196146E-02       4    7    1         0.2661301830E+00      0.8205526801E+00
          0                 3           2             4    7     1      -0.3363414200E-03       4    7    1        -0.1862915189E-01      0.5743873664E-01
          0                 4           1             4    7     1       0.1338333821E-04       4    7    1         0.7619332428E-03      0.2349246912E-02

    ------------------------------------------------
       NWT REQUIRED            4 OUTER ITERATIONS 
       AND A TOTAL OF          7 INNER ITERATIONS.
    ------------------------------------------------

 NO OUTPUT CONTROL FOR STRESS PERIOD   33   TIME STEP   23
 
 SOLVING FOR HEAD 
                                                   Max.-Head-Change                         Max.-Flux-Residual
  Residual-Control   Outer-Iter.   Inner-Iter.     Column Row Layer    Maximum-Head-Change  Column Row Layer    Maximum-Flux-Residual          L2-NORM 
          0                 1           2             4    7     1      -0.5035110830E-01       4    7    1        -0.2638204937E+01      0.8174441404E+01
          0                 2           2             4    7     1       0.4897743175E-02       4    7    1         0.2638173337E+00      0.8174580564E+00
          0                 3           2             4    7     1      -0.3335186094E-03       4    7    1        -0.1846725125E-01      0.5722211074E-01
          0                 4           1             4    7     1       0.1327101534E-04       4    7    1         0.7553114788E-03      0.2340385564E-02

    ------------------------------------------------
       NWT REQUIRED            4 OUTER ITERATIONS 
       AND A TOTAL OF          7 INNER ITERATIONS.
    ------------------------------------------------

 NO OUTPUT CONTROL FOR STRESS PERIOD   33   TIME STEP   24
 
 SOLVING FOR HEAD 
                                                   Max.-Head-Change                         Max.-Flux-Residual
  Residual-Control   Outer-Iter.   Inner-Iter.     Column Row Layer    Maximum-Head-Change  Column Row Layer    Maximum-Flux-Residual          L2-NORM 
          0                 1           2             4    7     1      -0.4994283548E-01       4    7    1        -0.2616064494E+01      0.8144411165E+01
          0                 2           2             4    7     1       0.4858030996E-02       4    7    1         0.2616034031E+00      0.8144378859E+00
          0                 3           2             4    7     1      -0.3308143412E-03       4    7    1        -0.1831227494E-01      0.5701070054E-01
          0                 4           1             4    7     1       0.1316341007E-04       4    7    1         0.7489729569E-03      0.2331743234E-02

    ------------------------------------------------
       NWT REQUIRED            4 OUTER ITERATIONS 
       AND A TOTAL OF          7 INNER ITERATIONS.
    ------------------------------------------------

 NO OUTPUT CONTROL FOR STRESS PERIOD   33   TIME STEP   25
 
 SOLVING FOR HEAD 
                                                   Max.-Head-Change                         Max.-Flux-Residual
  Residual-Control   Outer-Iter.   Inner-Iter.     Column Row Layer    Maximum-Head-Change  Column Row Layer    Maximum-Flux-Residual          L2-NORM 
          0                 1           2             4    7     1      -0.4955134244E-01       4    7    1        -0.2594852017E+01      0.8115386525E+01
          0                 2           2             4    7     1       0.4819950940E-02       4    7    1         0.2594822626E+00      0.8115354914E+00
          0                 3           2             4    7     1      -0.3282212157E-03       4    7    1        -0.1816379404E-01      0.5680753160E-01
          0                 4           1             4    7     1       0.1306022764E-04       4    7    1         0.7429000948E-03      0.2323431267E-02

    ------------------------------------------------
       NWT REQUIRED            4 OUTER ITERATIONS 
       AND A TOTAL OF          7 INNER ITERATIONS.
    ------------------------------------------------

 NO OUTPUT CONTROL FOR STRESS PERIOD   33   TIME STEP   26
 
 SOLVING FOR HEAD 
                                                   Max.-Head-Change                         Max.-Flux-Residual
  Residual-Control   Outer-Iter.   Inner-Iter.     Column Row Layer    Maximum-Head-Change  Column Row Layer    Maximum-Flux-Residual          L2-NORM 
          0                 1           2             4    7     1      -0.4917558390E-01       4    7    1        -0.2574509579E+01      0.8087297309E+01
          0                 2           2             4    7     1       0.4783401334E-02       4    7    1         0.2574481199E+00      0.8087266032E+00
          0                 3           2             4    7     1      -0.3257323087E-03       4    7    1        -0.1802140304E-01      0.5661090916E-01
          0                 4           1             4    7     1       0.1296119154E-04       4    7    1         0.7370762805E-03      0.2315389402E-02

    ------------------------------------------------
       NWT REQUIRED            4 OUTER ITERATIONS 
       AND A TOTAL OF          7 INNER ITERATIONS.
    ------------------------------------------------

 NO OUTPUT CONTROL FOR STRESS PERIOD   33   TIME STEP   27
 
 SOLVING FOR HEAD 
                                                   Max.-Head-Change                         Max.-Flux-Residual
  Residual-Control   Outer-Iter.   Inner-Iter.     Column Row Layer    Maximum-Head-Change  Column Row Layer    Maximum-Flux-Residual          L2-NORM 
          0                 1           2             4    7     1      -0.4881470524E-01       4    7    1        -0.2554990170E+01      0.8060061686E+01
          0                 2           2             4    7     1       0.4748299053E-02       4    7    1         0.2554962743E+00      0.8060031229E+00
          0                 3           2             4    7     1      -0.3233419599E-03       4    7    1        -0.1788477287E-01      0.5642026324E-01
          0                 4           1             4    7     1       0.1286607738E-04       4    7    1         0.7314881136E-03      0.2307594374E-02

    ------------------------------------------------
       NWT REQUIRED            4 OUTER ITERATIONS 
       AND A TOTAL OF          7 INNER ITERATIONS.
    ------------------------------------------------

 NO OUTPUT CONTROL FOR STRESS PERIOD   33   TIME STEP   28
 
 SOLVING FOR HEAD 
                                                   Max.-Head-Change                         Max.-Flux-Residual
  Residual-Control   Outer-Iter.   Inner-Iter.     Column Row Layer    Maximum-Head-Change  Column Row Layer    Maximum-Flux-Residual          L2-NORM 
          0                 1           2             4    7     1      -0.4846764600E-01       4    7    1        -0.2536235103E+01      0.8033619030E+01
          0                 2           2             4    7     1       0.4714540947E-02       4    7    1         0.2536208575E+00      0.8033589122E+00
          0                 3           2             4    7     1      -0.3210431452E-03       4    7    1        -0.1775349278E-01      0.5623517479E-01
          0                 4           1             4    7     1       0.1277460528E-04       4    7    1         0.7261187448E-03      0.2300025263E-02

    ------------------------------------------------
       NWT REQUIRED            4 OUTER ITERATIONS 
       AND A TOTAL OF          7 INNER ITERATIONS.
    ------------------------------------------------

 NO OUTPUT CONTROL FOR STRESS PERIOD   33   TIME STEP   29
 
 SOLVING FOR HEAD 
                                                   Max.-Head-Change                         Max.-Flux-Residual
  Residual-Control   Outer-Iter.   Inner-Iter.     Column Row Layer    Maximum-Head-Change  Column Row Layer    Maximum-Flux-Residual          L2-NORM 
          0                 1           2             4    7     1      -0.4813366635E-01       4    7    1        -0.2518203766E+01      0.8007911128E+01
          0                 2           2             4    7     1       0.4682055054E-02       4    7    1         0.2518178085E+00      0.8007881673E+00
          0                 3           2             4    7     1      -0.3188309646E-03       4    7    1        -0.1762727850E-01      0.5605521482E-01
          0                 4           1             4    7     1       0.1268658079E-04       4    7    1         0.7209565783E-03      0.2292662112E-02

    ------------------------------------------------
       NWT REQUIRED            4 OUTER ITERATIONS 
       AND A TOTAL OF          7 INNER ITERATIONS.
    ------------------------------------------------

 NO OUTPUT CONTROL FOR STRESS PERIOD   33   TIME STEP   30



 STREAM LISTING     PERIOD     33   STEP       30

 LAYER ROW COL. STREAM  RCH.  FLOW INTO     FLOW TO   FLOW OUT OF   OVRLND.     DIRECT     STREAM       STREAM     STREAM     STREAM   STREAMBED  STREAMBED
                SEG.NO.  NO.  STRM. RCH.    AQUIFER    STRM. RCH.    RUNOFF     PRECIP       ET          HEAD       DEPTH      WIDTH   CONDCTNC.   GRADIENT

   1    1    1     1     1    1.9000E+01  2.1427E-01   1.8786E+01  0.000E+00  0.000E+00  0.000E+00  1.09413E+03  1.082E+00  1.166E+01  5.249E-02  1.361E+00
   1    2    2     1     2    1.8786E+01  3.3054E-01   1.8455E+01  0.000E+00  0.000E+00  0.000E+00  1.08914E+03  1.077E+00  1.158E+01  8.107E-02  1.359E+00
   1    3    3     1     3    1.8455E+01  2.8064E-01   1.8175E+01  0.000E+00  0.000E+00  0.000E+00  1.08349E+03  1.072E+00  1.149E+01  6.892E-02  1.357E+00
   1    3    4     1     4    1.8175E+01  2.5740E-01   1.7917E+01  0.000E+00  0.000E+00  0.000E+00  1.07848E+03  1.068E+00  1.140E+01  6.328E-02  1.356E+00
   1    4    5     2     1    1.5917E+01  3.0542E-01   1.5612E+01  0.000E+00  0.000E+00  0.000E+00  1.07285E+03  9.157E-01  1.200E+01  7.800E-02  1.305E+00
   1    5    6     2     2    1.5612E+01  2.3438E-01   1.5377E+01  0.000E+00  0.000E+00  0.000E+00  1.06742E+03  9.063E-01  1.200E+01  6.000E-02  1.302E+00
   1    6    6     2     3    1.5377E+01  2.3388E-01   1.5143E+01  0.000E+00  0.000E+00  0.000E+00  1.06269E+03  8.980E-01  1.200E+01  6.000E-02  1.299E+00
   1    7    6     2     4    1.5143E+01  2.3338E-01   1.4910E+01  0.000E+00  0.000E+00  0.000E+00  1.05797E+03  8.897E-01  1.200E+01  6.000E-02  1.297E+00
   1    8    6     2     5    1.4910E+01  2.3289E-01   1.4677E+01  0.000E+00  0.000E+00  0.000E+00  1.05324E+03  8.814E-01  1.200E+01  6.000E-02  1.294E+00
   1    3    5     3     1    2.0000E+00  2.8252E-01   1.7175E+00  0.000E+00  0.000E+00  0.000E+00  1.07555E+03  1.909E+00  9.636E+00  7.227E-02  1.955E+00
   1    3    6     3     2    1.7175E+00  2.4905E-01   1.4684E+00  0.000E+00  0.000E+00  0.000E+00  1.07264E+03  1.727E+00  8.909E+00  6.682E-02  1.864E+00
   1    3    7     3     3    1.4684E+00  1.9718E-01   1.2712E+00  0.000E+00  0.000E+00  0.000E+00  1.06987E+03  1.555E+00  8.218E+00  5.547E-02  1.777E+00
   1    4    8     3     4    1.2712E+00  2.2567E-01   1.0456E+00  0.000E+00  0.000E+00  0.000E+00  1.06682E+03  1.364E+00  7.455E+00  6.709E-02  1.682E+00
   1    5    8     3     5    1.0456E+00  1.5790E-01   8.8768E-01  0.000E+00  0.000E+00  0.000E+00  1.06362E+03  1.164E+00  6.655E+00  4.991E-02  1.582E+00
   1    6    8     3     6    8.8768E-01  5.5980E-02   8.3170E-01  0.000E+00  0.000E+00  0.000E+00  1.06158E+03  1.036E+00  6.145E+00  1.844E-02  1.518E+00
   1    5   10     4     1    1.0000E+01  9.0919E-02   9.9091E+00  0.000E+00  0.000E+00  0.000E+00  1.07836E+03  6.368E-01  1.000E+01  2.500E-02  1.212E+00
   1    5    9     4     2    9.9091E+00  1.8158E-01   9.7275E+00  0.000E+00  0.000E+00  0.000E+00  1.07154E+03  6.315E-01  1.000E+01  5.000E-02  1.211E+00
   1    6    8     4     3    9.7275E+00  1.2689E-01   9.6006E+00  0.000E+00  0.000E+00  0.000E+00  1.06381E+03  6.256E-01  1.000E+01  3.500E-02  1.209E+00
   1    6    8     5     1    1.0432E+01  2.2686E-01   1.0205E+01  0.000E+00  0.000E+00  0.000E+00  1.05868E+03  6.790E-01  1.542E+01  6.166E-02  1.226E+00
   1    7    7     5     2    1.0205E+01  2.7894E-01   9.9265E+00  0.000E+00  0.000E+00  0.000E+00  1.05417E+03  6.732E-01  1.519E+01  7.594E-02  1.224E+00
   1    8    7     5     3    9.9265E+00  1.9221E-01   9.7343E+00  0.000E+00  0.000E+00  0.000E+00  1.04992E+03  6.676E-01  1.497E+01  5.241E-02  1.223E+00
   1    8    6     5     4    9.7343E+00  1.3577E-01   9.5985E+00  0.000E+00  0.000E+00  0.000E+00  1.04691E+03  6.637E-01  1.482E+01  3.706E-02  1.221E+00
   1    9    6     6     1    2.4276E+01  2.5176E-01   2.4024E+01  0.000E+00  0.000E+00  0.000E+00  1.04392E+03  1.196E+00  1.200E+01  6.000E-02  1.399E+00
   1   10    7     6     2    2.4024E+01  2.5131E-01   2.3773E+01  0.000E+00  0.000E+00  0.000E+00  1.03937E+03  1.188E+00  1.200E+01  6.000E-02  1.396E+00
   1   11    7     6     3    2.3773E+01  2.5086E-01   2.3522E+01  0.000E+00  0.000E+00  0.000E+00  1.03482E+03  1.181E+00  1.200E+01  6.000E-02  1.394E+00
   1   12    7     6     4    2.3522E+01  2.5041E-01   2.3271E+01  0.000E+00  0.000E+00  0.000E+00  1.03026E+03  1.173E+00  1.200E+01  6.000E-02  1.391E+00
   1   13    7     6     5    2.3271E+01  7.0486E-03   2.3264E+01  0.000E+00  0.000E+00  0.000E+00  1.02708E+03  1.170E+00  1.200E+01  2.400E-02  9.790E-02
   1   14    9     7     1    1.5000E+02  1.3523E+00   1.4865E+02  0.000E+00  0.000E+00  0.000E+00  1.03987E+03  2.288E+00  5.529E+01  5.593E-01  8.060E-01
   1   13    8     7     2    1.4865E+02  1.9164E+00   1.4673E+02  0.000E+00  0.000E+00  0.000E+00  1.03478E+03  2.279E+00  5.526E+01  6.148E-01  1.039E+00
   1   13    7     7     3    1.4673E+02  1.6216E+00   1.4511E+02  0.000E+00  0.000E+00  0.000E+00  1.02969E+03  2.270E+00  5.521E+01  5.584E-01  9.680E-01
   1   13    6     8     1    1.6837E+02  1.0602E+00   1.6731E+02  0.000E+00  0.000E+00  0.000E+00  1.02481E+03  2.938E+00  4.260E+01  4.341E-01  8.140E-01
   1   13    5     8     2    1.6731E+02  3.0387E-01   1.6701E+02  0.000E+00  0.000E+00  0.000E+00  1.01856E+03  2.934E+00  4.254E+01  4.335E-01  2.337E-01
   1   13    4     8     3    1.6701E+02 -2.0093E+00   1.6902E+02  0.000E+00  0.000E+00  0.000E+00  1.01231E+03  2.939E+00  4.262E+01  4.343E+00 -1.542E-01
   1   13    3     8     4    1.6902E+02 -3.4390E+00   1.7246E+02  0.000E+00  0.000E+00  0.000E+00  1.00608E+03  2.957E+00  4.288E+01  4.369E+00 -2.624E-01
   1   13    2     8     5    1.7246E+02 -2.5252E+00   1.7498E+02  0.000E+00  0.000E+00  0.000E+00  9.99851E+02  2.976E+00  4.316E+01  4.398E+00 -1.914E-01
   1   13    1     8     6    1.7498E+02 -1.9693E+00   1.7695E+02  0.000E+00  0.000E+00  0.000E+00  9.94866E+02  2.991E+00  4.336E+01  2.651E+00 -2.476E-01





UNSATURATED ZONE PACKAGE VOLUMETRIC BUDGET FOR  TIME STEP    30 STRESS PERIOD   33
  ------------------------------------------------------------------------------



     CUMULATIVE VOLUMES      L**3       RATES FOR THIS TIME STEP      L**3/T
     ------------------                 ------------------------

           IN:                                      IN:
           ---                                      ---
        INFILTRATION =  1469411469.4666          INFILTRATION =          49.5675

          OUT:                                     OUT:
          ----                                     ----
              UZF ET =  1253283319.2544                UZF ET =          49.5675
        UZF RECHARGE =   144037931.5316          UZF RECHARGE =       0.0000E+00

            IN - OUT =    72090218.6805              IN - OUT =       0.0000E+00

          STORAGE:                                 STORAGE:
          --------                                 --------
      STORAGE CHANGE =    72090197.2281        STORAGE CHANGE =       5.0457E-14

 PERCENT DISCREPANCY IS DIFFERENCE BETWEEN IN-OUT MINUS CHANGE IN STORAGE
 DIVIDED BY THE AVERAGE OF IN AND OUT TIMES 100

 PERCENT DISCREPANCY =           0.00     PERCENT DISCREPANCY =           0.00






1
  VOLUMETRIC BUDGET FOR AGRICULTURAL FIELDS AT  END OF TIME STEP   30, STRESS PERIOD  33
  ------------------------------------------------------------------------------

     CUMULATIVE VOLUMES      L**3       RATES FOR THIS TIME STEP      L**3/T
     ------------------                 ------------------------

           IN:                                      IN:
           ---                                      ---
               AG WELLS  =  1398008704.0000                 AG WELLS  =          48.7200
      DIVERSION SEGMENTS =           0.0000        DIVERSION SEGMENTS =           0.0000
           GW IRRIGATION =           0.0000             GW IRRIGATION =           0.0000
           SW IRRIGATION =           0.0000             SW IRRIGATION =           0.0000
        SYSTEM LOSSES GW =           0.0000          SYSTEM LOSSES GW =           0.0000
        SYSTEM LOSSES SW =           0.0000          SYSTEM LOSSES SW =           0.0000

                TOTAL IN =  1398008704.0000                  TOTAL IN =          48.7200

          OUT:                                     OUT:
          ----                                     ----
               AG WELLS  =           0.0000                 AG WELLS  =           0.0000
      DIVERSION SEGMENTS =           0.0000        DIVERSION SEGMENTS =           0.0000
           GW IRRIGATION =  1398008704.0000             GW IRRIGATION =          48.7200
           SW IRRIGATION =           0.0000             SW IRRIGATION =           0.0000
        SYSTEM LOSSES GW =           0.0000          SYSTEM LOSSES GW =           0.0000
        SYSTEM LOSSES SW =           0.0000          SYSTEM LOSSES SW =           0.0000

               TOTAL OUT =  1398008704.0000                 TOTAL OUT =          48.7200

                IN - OUT =           0.0000                  IN - OUT =           0.0000

     PERCENT DISCREPANCY =           0.00         PERCENT DISCREPANCY =           0.00



1
  VOLUMETRIC BUDGET FOR ENTIRE MODEL AT END OF TIME STEP   30, STRESS PERIOD  33
  ------------------------------------------------------------------------------

     CUMULATIVE VOLUMES      L**3       RATES FOR THIS TIME STEP      L**3/T
     ------------------                 ------------------------

           IN:                                      IN:
           ---                                      ---
             STORAGE     =  1691800960.0000               STORAGE     =          46.7378
       CONSTANT HEAD     =           0.0000         CONSTANT HEAD     =           0.0000
     HEAD DEP BOUNDS     =    24069484.0000       HEAD DEP BOUNDS     =           0.2869
      STREAM LEAKAGE     =  1034938304.0000        STREAM LEAKAGE     =          11.9901
        UZF RECHARGE     =   144037952.0000          UZF RECHARGE     =           0.0000
               GW ET     =           0.0000                 GW ET     =           0.0000
     SURFACE LEAKAGE     =           0.0000       SURFACE LEAKAGE     =           0.0000
           AG WELLS      =           0.0000             AG WELLS      =           0.0000

                TOTAL IN =  2894846720.0000                  TOTAL IN =          59.0148

          OUT:                                     OUT:
          ----                                     ----
             STORAGE     =   587994624.0000               STORAGE     =       6.2958E-02
       CONSTANT HEAD     =           0.0000         CONSTANT HEAD     =           0.0000
     HEAD DEP BOUNDS     =    24671564.0000       HEAD DEP BOUNDS     =           0.2891
      STREAM LEAKAGE     =   866628672.0000        STREAM LEAKAGE     =           9.9428
        UZF RECHARGE     =           0.0000          UZF RECHARGE     =           0.0000
               GW ET     =    17516984.0000                 GW ET     =           0.0000
     SURFACE LEAKAGE     =           0.0000       SURFACE LEAKAGE     =           0.0000
           AG WELLS      =  1398008704.0000             AG WELLS      =          48.7200

               TOTAL OUT =  2894820352.0000                 TOTAL OUT =          59.0149

                IN - OUT =       26368.0000                  IN - OUT =      -1.6785E-04

     PERCENT DISCREPANCY =           0.00         PERCENT DISCREPANCY =          -0.00






         TIME SUMMARY AT END OF TIME STEP   30 IN STRESS PERIOD   33
                    SECONDS     MINUTES      HOURS       DAYS        YEARS
                    -----------------------------------------------------------
   TIME STEP LENGTH  87667.      1461.1      24.352      1.0147     2.77799E-03
 STRESS PERIOD TIME 2.63000E+06  43833.      730.56      30.440     8.33397E-02
         TOTAL TIME 8.42463E+07 1.40410E+06  23402.      975.07      2.6696    
1
1
                            STRESS PERIOD NO.   34, LENGTH =   2630000.    
                            -----------------------------------------------

                              NUMBER OF TIME STEPS =    30

                               MULTIPLIER FOR DELT =     1.000

                            INITIAL TIME STEP SIZE =   87666.66    

 REUSING NON-PARAMETER GHB CELLS FROM LAST STRESS PERIOD

      2 GHB CELLS

 REUSING STREAM SEGMENT DATA FROM LAST STRESS PERIOD



            AREAL INFILTRATION RATE
 READING ON UNIT   19 WITH FORMAT: (FREE)              

            1           2           3           4           5           6           7           8           9          10
 ........................................................................................................................
   1   1.0000E-10  2.0000E-10   0.000       0.000       0.000       0.000       0.000       0.000       0.000       0.000    
   2   2.0000E-10  1.0000E-10  2.0000E-10   0.000       0.000      8.0000E-10  8.0000E-10  5.0000E-10   0.000       0.000    
   3    0.000      5.0000E-10  1.0000E-10  1.0000E-10  8.0000E-10  8.0000E-10  5.0000E-10  5.0000E-10   0.000       0.000    
   4   8.0000E-10  5.0000E-10  1.0000E-10  1.0000E-10  1.0000E-10  1.0000E-10  1.0000E-10  1.0000E-10  2.0000E-10   0.000    
   5   8.0000E-10  5.0000E-10  1.0000E-10  1.0000E-10  1.0000E-10  1.0000E-10  1.0000E-10  1.0000E-10  1.0000E-10  1.0000E-10
   6   8.0000E-10  5.0000E-10  5.0000E-10  2.0000E-10  2.0000E-10  1.0000E-10  1.0000E-10  1.0000E-10  1.0000E-10  5.0000E-10
   7   8.0000E-10  5.0000E-10  5.0000E-10  2.0000E-10  2.0000E-10  1.0000E-10  1.0000E-10  2.0000E-10  2.0000E-10   0.000    
   8    0.000      5.0000E-10  5.0000E-10  2.0000E-10  2.0000E-10  1.0000E-10  1.0000E-10  2.0000E-10  5.0000E-10   0.000    
   9    0.000      5.0000E-10  5.0000E-10  2.0000E-10  2.0000E-10  1.0000E-10  1.0000E-10  2.0000E-10  5.0000E-10   0.000    
  10    0.000      5.0000E-10  5.0000E-10  2.0000E-10  2.0000E-10  1.0000E-10  1.0000E-10  2.0000E-10  5.0000E-10  8.0000E-10
  11    0.000      1.0000E-10  1.0000E-10  1.0000E-10  1.0000E-10  1.0000E-10  1.0000E-10  2.0000E-10  5.0000E-10   0.000    
  12   1.0000E-10  1.0000E-10  1.0000E-10  1.0000E-10  1.0000E-10  1.0000E-10  1.0000E-10  1.0000E-10  2.0000E-10   0.000    
  13   1.0000E-10  1.0000E-10  2.0000E-10  2.0000E-10  2.0000E-10  2.0000E-10  2.0000E-10  1.0000E-10  1.0000E-10   0.000    
  14    0.000      2.0000E-10  5.0000E-10  5.0000E-10  5.0000E-10  5.0000E-10  5.0000E-10  2.0000E-10  1.0000E-10   0.000    
  15    0.000       0.000      8.0000E-10  8.0000E-10  8.0000E-10  8.0000E-10   0.000       0.000       0.000       0.000    

                  ET RATE =  7.500000E-08

 USING ET EXTINCTION DEPTH FROM PREVIOUS STRESS PERIOD. CURRENT PERIOD IS:      34

 USING EXTINCTION WATER CONTENT FROM PREVIOUS STRESS PERIOD. CURRENT PERIOD IS:      34

 USING AIR ENTRY PRESSURE FROM PREVIOUS STRESS PERIOD. CURRENT PERIOD IS:      34

 USING ROOT PRESSURE HEAD FROM PREVIOUS STRESS PERIOD. CURRENT PERIOD IS:      34

 USING ROOT ACTIVITY FROM PREVIOUS STRESS PERIOD. CURRENT PERIOD IS:      34

 PROCESSING AG STRESS PERIOD DATA

 READING AG STRESS PERIOD DATA

 READING IRRIGATION WELL

 END PROCESSING AG STRESS PERIOD DATA OPTIONS
 
 SOLVING FOR HEAD 
                                                   Max.-Head-Change                         Max.-Flux-Residual
  Residual-Control   Outer-Iter.   Inner-Iter.     Column Row Layer    Maximum-Head-Change  Column Row Layer    Maximum-Flux-Residual          L2-NORM 
          0                 1           2             5    8     1       0.8264345082E-01       5    8    1         0.4486504784E+01      0.1199209655E+02
          0                 2           2             5    8     1      -0.8038809820E-02       5    8    1        -0.4486404491E+00      0.1199182066E+01
          0                 3           2             5    8     1       0.5474124735E-03       5    8    1         0.3140482181E-01      0.8394279010E-01
          0                 4           1             5    8     1      -0.2178204828E-04       5    8    1        -0.1284458559E-02      0.3433263424E-02

    ------------------------------------------------
       NWT REQUIRED            4 OUTER ITERATIONS 
       AND A TOTAL OF          7 INNER ITERATIONS.
    ------------------------------------------------

 NO OUTPUT CONTROL FOR STRESS PERIOD   34   TIME STEP    1
 
 SOLVING FOR HEAD 
                                                   Max.-Head-Change                         Max.-Flux-Residual
  Residual-Control   Outer-Iter.   Inner-Iter.     Column Row Layer    Maximum-Head-Change  Column Row Layer    Maximum-Flux-Residual          L2-NORM 
          0                 1           2             5    8     1       0.7917193952E-01       5    8    1         0.4294548332E+01      0.1163487256E+02
          0                 2           2             5    8     1      -0.7701136066E-02       5    8    1        -0.4294454718E+00      0.1163462423E+01
          0                 3           2             5    8     1       0.5244180483E-03       5    8    1         0.3006116650E-01      0.8144238489E-01
          0                 4           1             5    8     1      -0.2086707892E-04       5    8    1        -0.1229502996E-02      0.3330997779E-02

    ------------------------------------------------
       NWT REQUIRED            4 OUTER ITERATIONS 
       AND A TOTAL OF          7 INNER ITERATIONS.
    ------------------------------------------------

 NO OUTPUT CONTROL FOR STRESS PERIOD   34   TIME STEP    2
 
 SOLVING FOR HEAD 
                                                   Max.-Head-Change                         Max.-Flux-Residual
  Residual-Control   Outer-Iter.   Inner-Iter.     Column Row Layer    Maximum-Head-Change  Column Row Layer    Maximum-Flux-Residual          L2-NORM 
          0                 1           2             5    8     1       0.7590701804E-01       5    8    1         0.4114151054E+01      0.1129613118E+02
          0                 2           2             5    8     1      -0.7383557151E-02       5    8    1        -0.4114063623E+00      0.1129590773E+01
          0                 3           2             5    8     1       0.5027920145E-03       5    8    1         0.2879842245E-01      0.7907134482E-01
          0                 4           1             5    8     1      -0.2000655940E-04       5    8    1        -0.1177856723E-02      0.3234020967E-02

    ------------------------------------------------
       NWT REQUIRED            4 OUTER ITERATIONS 
       AND A TOTAL OF          7 INNER ITERATIONS.
    ------------------------------------------------

 NO OUTPUT CONTROL FOR STRESS PERIOD   34   TIME STEP    3
 
 SOLVING FOR HEAD 
                                                   Max.-Head-Change                         Max.-Flux-Residual
  Residual-Control   Outer-Iter.   Inner-Iter.     Column Row Layer    Maximum-Head-Change  Column Row Layer    Maximum-Flux-Residual          L2-NORM 
          0                 1           2             5    7     1       0.7379797655E-01       5    8    1         0.3944488409E+01      0.1097455497E+02
          0                 2           2             5    7     1      -0.7178469536E-02       5    8    1        -0.3944406706E+00      0.1097435393E+01
          0                 3           2             5    7     1       0.4888256444E-03       5    8    1         0.2761081808E-01      0.7682044382E-01
          0                 4           1             5    7     1      -0.1945083007E-04       5    8    1        -0.1129283665E-02      0.3141958516E-02

    ------------------------------------------------
       NWT REQUIRED            4 OUTER ITERATIONS 
       AND A TOTAL OF          7 INNER ITERATIONS.
    ------------------------------------------------

 NO OUTPUT CONTROL FOR STRESS PERIOD   34   TIME STEP    4
 
 SOLVING FOR HEAD 
                                                   Max.-Head-Change                         Max.-Flux-Residual
  Residual-Control   Outer-Iter.   Inner-Iter.     Column Row Layer    Maximum-Head-Change  Column Row Layer    Maximum-Flux-Residual          L2-NORM 
          0                 1           2             5    8     1       0.8905887683E-01       5    8    1         0.4839678312E+01      0.1108711203E+02
          0                 2           2             5    8     1       0.2336805316E-01       5    8    1         0.1296712917E+01      0.1635983440E+01
          0                 3           2             5    8     1       0.6131426965E-02       5    8    1         0.3377437542E+00      0.3449457926E+00
          0                 4           1             5    8     1       0.1608803476E-02       5    8    1         0.8876943125E-01      0.8881264705E-01
          0                 5           1             5    8     1       0.4221285239E-03       5    8    1         0.2328411382E-01      0.2328515378E-01
          0                 6           1             5    8     1       0.1107609043E-03       5    8    1         0.6109816641E-02      0.6109992991E-02
          0                 7           1             5    8     1       0.2906218779E-04       5    8    1         0.1603118670E-02      0.1603167890E-02

    ------------------------------------------------
       NWT REQUIRED            7 OUTER ITERATIONS 
       AND A TOTAL OF         10 INNER ITERATIONS.
    ------------------------------------------------

 NO OUTPUT CONTROL FOR STRESS PERIOD   34   TIME STEP    5
 
 SOLVING FOR HEAD 
                                                   Max.-Head-Change                         Max.-Flux-Residual
  Residual-Control   Outer-Iter.   Inner-Iter.     Column Row Layer    Maximum-Head-Change  Column Row Layer    Maximum-Flux-Residual          L2-NORM 
          0                 1           2             5    8     1       0.1463249814E+00       5    8    1         0.7996539837E+01      0.1260711665E+02
          0                 2           2             4    7     1      -0.6802252236E-02       5    7    1        -0.3800199699E+00      0.1013344938E+01
          0                 3           2             5    8     1      -0.4754671016E-03       5    8    1        -0.2751466012E-01      0.7362104237E-01
          0                 4           1             5    8     1       0.3235426495E-04       5    8    1         0.1909494892E-02      0.3388488957E-02

    ------------------------------------------------
       NWT REQUIRED            4 OUTER ITERATIONS 
       AND A TOTAL OF          7 INNER ITERATIONS.
    ------------------------------------------------

 NO OUTPUT CONTROL FOR STRESS PERIOD   34   TIME STEP    6
 
 SOLVING FOR HEAD 
                                                   Max.-Head-Change                         Max.-Flux-Residual
  Residual-Control   Outer-Iter.   Inner-Iter.     Column Row Layer    Maximum-Head-Change  Column Row Layer    Maximum-Flux-Residual          L2-NORM 
          0                 1           2             5    8     1       0.1381434608E+00       5    8    1         0.7541037352E+01      0.1216519045E+02
          0                 2           2             5    8     1      -0.1343109515E-01       5    8    1        -0.7537413539E+00      0.1216272248E+01
          0                 3           2             5    8     1       0.9139445402E-03       5    8    1         0.5272320527E-01      0.8511513713E-01
          0                 4           1             5    8     1      -0.3632324859E-04       5    8    1        -0.2153777506E-02      0.3479600101E-02

    ------------------------------------------------
       NWT REQUIRED            4 OUTER ITERATIONS 
       AND A TOTAL OF          7 INNER ITERATIONS.
    ------------------------------------------------

 NO OUTPUT CONTROL FOR STRESS PERIOD   34   TIME STEP    7
 
 SOLVING FOR HEAD 
                                                   Max.-Head-Change                         Max.-Flux-Residual
  Residual-Control   Outer-Iter.   Inner-Iter.     Column Row Layer    Maximum-Head-Change  Column Row Layer    Maximum-Flux-Residual          L2-NORM 
          0                 1           2             5    8     1       0.1316217883E+00       5    8    1         0.7178559289E+01      0.1178460761E+02
          0                 2           2             5    8     1      -0.1279699227E-01       5    8    1        -0.7175086305E+00      0.1178229391E+01
          0                 3           2             5    8     1       0.8707959875E-03       5    8    1         0.5018875477E-01      0.8245364575E-01
          0                 4           1             5    8     1      -0.3460837797E-04       5    8    1        -0.2050241204E-02      0.3370848250E-02

    ------------------------------------------------
       NWT REQUIRED            4 OUTER ITERATIONS 
       AND A TOTAL OF          7 INNER ITERATIONS.
    ------------------------------------------------

 NO OUTPUT CONTROL FOR STRESS PERIOD   34   TIME STEP    8
 
 SOLVING FOR HEAD 
                                                   Max.-Head-Change                         Max.-Flux-Residual
  Residual-Control   Outer-Iter.   Inner-Iter.     Column Row Layer    Maximum-Head-Change  Column Row Layer    Maximum-Flux-Residual          L2-NORM 
          0                 1           2             5    8     1       0.1255203231E+00       5    8    1         0.6839670508E+01      0.1142738978E+02
          0                 2           2             5    8     1      -0.1220374895E-01       5    8    1        -0.6836340566E+00      0.1142521972E+01
          0                 3           2             5    8     1       0.8304277614E-03       5    8    1         0.4781925434E-01      0.7995552180E-01
          0                 4           1             5    8     1      -0.3300400785E-04       5    8    1        -0.1953443492E-02      0.3268770033E-02

    ------------------------------------------------
       NWT REQUIRED            4 OUTER ITERATIONS 
       AND A TOTAL OF          7 INNER ITERATIONS.
    ------------------------------------------------

 NO OUTPUT CONTROL FOR STRESS PERIOD   34   TIME STEP    9
 
 SOLVING FOR HEAD 
                                                   Max.-Head-Change                         Max.-Flux-Residual
  Residual-Control   Outer-Iter.   Inner-Iter.     Column Row Layer    Maximum-Head-Change  Column Row Layer    Maximum-Flux-Residual          L2-NORM 
          0                 1           2             5    8     1       0.1198078337E+00       5    8    1         0.6522607016E+01      0.1109151148E+02
          0                 2           2             5    8     1       0.1559093987E-01       5    8    1         0.8690727734E+00      0.1249009466E+01
          0                 3           2             5    8     1       0.4090482604E-02       5    8    1         0.2250639731E+00      0.2337289186E+00
          0                 4           1             5    8     1       0.1073195240E-02       5    8    1         0.5923076561E-01      0.5928235257E-01
          0                 5           1             5    8     1       0.2815678672E-03       5    8    1         0.1553151925E-01      0.1553236245E-01
          0                 6           1             5    8     1       0.7387330073E-04       5    8    1         0.4075026032E-02      0.4075221904E-02

    ------------------------------------------------
       NWT REQUIRED            6 OUTER ITERATIONS 
       AND A TOTAL OF          9 INNER ITERATIONS.
    ------------------------------------------------

 NO OUTPUT CONTROL FOR STRESS PERIOD   34   TIME STEP   10
 
 SOLVING FOR HEAD 
                                                   Max.-Head-Change                         Max.-Flux-Residual
  Residual-Control   Outer-Iter.   Inner-Iter.     Column Row Layer    Maximum-Head-Change  Column Row Layer    Maximum-Flux-Residual          L2-NORM 
          0                 1           2             5    8     1       0.1124358299E+00       5    8    1         0.6112697781E+01      0.1072575491E+02
          0                 2           2             5    8     1       0.2949845405E-01       5    8    1         0.1636798861E+01      0.1858991284E+01
          0                 3           2             5    8     1       0.3812691441E-02       5    8    1         0.2096963457E+00      0.2187298560E+00
          0                 4           1             5    8     1      -0.3706800292E-03       5    8    1        -0.2100988148E-01      0.2115015351E-01
          0                 5           1             5    8     1       0.2522380184E-04       5    8    1         0.1471666185E-02      0.1472231537E-02

    ------------------------------------------------
       NWT REQUIRED            5 OUTER ITERATIONS 
       AND A TOTAL OF          8 INNER ITERATIONS.
    ------------------------------------------------

 NO OUTPUT CONTROL FOR STRESS PERIOD   34   TIME STEP   11
 
 SOLVING FOR HEAD 
                                                   Max.-Head-Change                         Max.-Flux-Residual
  Residual-Control   Outer-Iter.   Inner-Iter.     Column Row Layer    Maximum-Head-Change  Column Row Layer    Maximum-Flux-Residual          L2-NORM 
          0                 1           2             5    8     1       0.1048348111E+00       5    8    1         0.5690052828E+01      0.1036967969E+02
          0                 2           2             5    8     1      -0.1019251048E-01       5    8    1        -0.5687212546E+00      0.1036800498E+01
          0                 3           2             5    8     1       0.6935696345E-03       5    8    1         0.3978118407E-01      0.7255989484E-01
          0                 4           1             5    8     1      -0.2756480000E-04       5    8    1        -0.1625075742E-02      0.2966619343E-02

    ------------------------------------------------
       NWT REQUIRED            4 OUTER ITERATIONS 
       AND A TOTAL OF          7 INNER ITERATIONS.
    ------------------------------------------------

 NO OUTPUT CONTROL FOR STRESS PERIOD   34   TIME STEP   12
 
 SOLVING FOR HEAD 
                                                   Max.-Head-Change                         Max.-Flux-Residual
  Residual-Control   Outer-Iter.   Inner-Iter.     Column Row Layer    Maximum-Head-Change  Column Row Layer    Maximum-Flux-Residual          L2-NORM 
          0                 1           2             5    8     1       0.1004535985E+00       5    8    1         0.5447716346E+01      0.1009765438E+02
          0                 2           2             5    8     1      -0.9766536001E-02       5    8    1        -0.5444985306E+00      0.1009607790E+01
          0                 3           2             5    8     1       0.6645834017E-03       5    8    1         0.3808682207E-01      0.7065732410E-01
          0                 4           1             5    8     1      -0.2641278902E-04       5    8    1        -0.1555858824E-02      0.2888866808E-02

    ------------------------------------------------
       NWT REQUIRED            4 OUTER ITERATIONS 
       AND A TOTAL OF          7 INNER ITERATIONS.
    ------------------------------------------------

 NO OUTPUT CONTROL FOR STRESS PERIOD   34   TIME STEP   13
 
 SOLVING FOR HEAD 
                                                   Max.-Head-Change                         Max.-Flux-Residual
  Residual-Control   Outer-Iter.   Inner-Iter.     Column Row Layer    Maximum-Head-Change  Column Row Layer    Maximum-Flux-Residual          L2-NORM 
          0                 1           2             4    8     1       0.1503387406E+00       4    8    1         0.8050884097E+01      0.1222011063E+02
          0                 2           2             4    8     1      -0.1461659939E-01       4    8    1        -0.8046940355E+00      0.1221618489E+01
          0                 3           2             4    8     1       0.9945953163E-03       4    8    1         0.5628648789E-01      0.8547399197E-01
          0                 4           1             4    8     1      -0.3952730221E-04       4    8    1        -0.2299286113E-02      0.3493239325E-02

    ------------------------------------------------
       NWT REQUIRED            4 OUTER ITERATIONS 
       AND A TOTAL OF          7 INNER ITERATIONS.
    ------------------------------------------------

 NO OUTPUT CONTROL FOR STRESS PERIOD   34   TIME STEP   14
 
 SOLVING FOR HEAD 
                                                   Max.-Head-Change                         Max.-Flux-Residual
  Residual-Control   Outer-Iter.   Inner-Iter.     Column Row Layer    Maximum-Head-Change  Column Row Layer    Maximum-Flux-Residual          L2-NORM 
          0                 1           2             5    7     1       0.1487646527E+00       5    7    1         0.8048512072E+01      0.1395733048E+02
          0                 2           2             5    7     1      -0.1445682052E-01       5    7    1        -0.8044731937E+00      0.1170133064E+01
          0                 3           2             5    7     1       0.9841928276E-03       5    7    1         0.5627136464E-01      0.9338514187E-01
          0                 4           2             4    8     1       0.2349573700E-03       4    8    1         0.1277584986E-01      0.1318990191E-01
          0                 5           1             4    8     1       0.6309796261E-04       4    8    1         0.3422174541E-02      0.3422643338E-02

    ------------------------------------------------
       NWT REQUIRED            5 OUTER ITERATIONS 
       AND A TOTAL OF          9 INNER ITERATIONS.
    ------------------------------------------------

 NO OUTPUT CONTROL FOR STRESS PERIOD   34   TIME STEP   15
 
 SOLVING FOR HEAD 
                                                   Max.-Head-Change                         Max.-Flux-Residual
  Residual-Control   Outer-Iter.   Inner-Iter.     Column Row Layer    Maximum-Head-Change  Column Row Layer    Maximum-Flux-Residual          L2-NORM 
          0                 1           2             5    7     1       0.1446931389E+00       5    7    1         0.7752116285E+01      0.1512667752E+02
          0                 2           2             4    8     1       0.3793448823E-01       4    8    1         0.2068637397E+01      0.2314916675E+01
          0                 3           2             4    8     1       0.8772464289E-02       4    8    1         0.4751718431E+00      0.4831326362E+00
          0                 4           2             4    8     1      -0.8529945601E-03       4    8    1        -0.4755149016E-01      0.4940064233E-01
          0                 5           1             5    7     1      -0.6558711677E-04       5    7    1        -0.3721874567E-02      0.4993876066E-02

    ------------------------------------------------
       NWT REQUIRED            5 OUTER ITERATIONS 
       AND A TOTAL OF          9 INNER ITERATIONS.
    ------------------------------------------------

 NO OUTPUT CONTROL FOR STRESS PERIOD   34   TIME STEP   16
 
 SOLVING FOR HEAD 
                                                   Max.-Head-Change                         Max.-Flux-Residual
  Residual-Control   Outer-Iter.   Inner-Iter.     Column Row Layer    Maximum-Head-Change  Column Row Layer    Maximum-Flux-Residual          L2-NORM 
          0                 1           2             5    7     1       0.1399330832E+00       5    7    1         0.7489456463E+01      0.1469991962E+02
          0                 2           2             5    7     1       0.3700694762E-01       5    7    1         0.2048899008E+01      0.2449321431E+01
          0                 3           2             5    7     1       0.9771187235E-02       5    7    1         0.5354755701E+00      0.5719865531E+00
          0                 4           2             5    7     1       0.2580901041E-02       5    7    1         0.1417331103E+00      0.1507270174E+00
          0                 5           2             5    7     1       0.6819487705E-03       5    7    1         0.3742718166E-01      0.4002470215E-01
          0                 6           2             5    7     1       0.1802544804E-03       5    7    1         0.9890819261E-02      0.1063940114E-01
          0                 7           1             5    7     1       0.4766194877E-04       5    7    1         0.2614602644E-02      0.2829346510E-02

    ------------------------------------------------
       NWT REQUIRED            7 OUTER ITERATIONS 
       AND A TOTAL OF         13 INNER ITERATIONS.
    ------------------------------------------------

 NO OUTPUT CONTROL FOR STRESS PERIOD   34   TIME STEP   17
 
 SOLVING FOR HEAD 
                                                   Max.-Head-Change                         Max.-Flux-Residual
  Residual-Control   Outer-Iter.   Inner-Iter.     Column Row Layer    Maximum-Head-Change  Column Row Layer    Maximum-Flux-Residual          L2-NORM 
          0                 1           2             5    7     1       0.1323335003E+00       5    7    1         0.7071004313E+01      0.1426455995E+02
          0                 2           2             5    8     1       0.2414043050E-01       5    8    1         0.1349828157E+01      0.1834245076E+01
          0                 3           2             5    8     1       0.6333057812E-02       5    8    1         0.3481948061E+00      0.3590088704E+00
          0                 4           1             5    8     1       0.1661445198E-02       5    8    1         0.9171963818E-01      0.9177896179E-01
          0                 5           1             5    8     1       0.4358715382E-03       5    8    1         0.2404734399E-01      0.2404812383E-01
          0                 6           1             5    8     1       0.1143486777E-03       5    8    1         0.6308833251E-02      0.6309004329E-02
          0                 7           1             5    8     1       0.2999879487E-04       5    8    1         0.1655081162E-02      0.1655128657E-02

    ------------------------------------------------
       NWT REQUIRED            7 OUTER ITERATIONS 
       AND A TOTAL OF         10 INNER ITERATIONS.
    ------------------------------------------------

 NO OUTPUT CONTROL FOR STRESS PERIOD   34   TIME STEP   18
 
 SOLVING FOR HEAD 
                                                   Max.-Head-Change                         Max.-Flux-Residual
  Residual-Control   Outer-Iter.   Inner-Iter.     Column Row Layer    Maximum-Head-Change  Column Row Layer    Maximum-Flux-Residual          L2-NORM 
          0                 1           2             5    7     1       0.1291353703E+00       5    7    1         0.6899500603E+01      0.1389813236E+02
          0                 2           2             4    7     1       0.1334170015E-01       4    7    1         0.7485878868E+00      0.1461160543E+01
          0                 3           2             4    7     1       0.3568176532E-02       4    7    1         0.1925663736E+00      0.2118970992E+00
          0                 4           1             4    7     1       0.9542931541E-03       4    7    1         0.5198555632E-01      0.5209950174E-01
          0                 5           1             4    7     1       0.2552211965E-03       4    7    1         0.1388423874E-01      0.1388501134E-01
          0                 6           1             4    7     1       0.6825771730E-04       4    7    1         0.3713402446E-02      0.3713564822E-02

    ------------------------------------------------
       NWT REQUIRED            6 OUTER ITERATIONS 
       AND A TOTAL OF          9 INNER ITERATIONS.
    ------------------------------------------------

 NO OUTPUT CONTROL FOR STRESS PERIOD   34   TIME STEP   19
 
 SOLVING FOR HEAD 
                                                   Max.-Head-Change                         Max.-Flux-Residual
  Residual-Control   Outer-Iter.   Inner-Iter.     Column Row Layer    Maximum-Head-Change  Column Row Layer    Maximum-Flux-Residual          L2-NORM 
          0                 1           2             4    7     1       0.1589046255E+00       4    7    1         0.8422242859E+01      0.1549709766E+02
          0                 2           2             4    7     1       0.4000111597E-01       4    7    1         0.2198427196E+01      0.2629651900E+01
          0                 3           2             5    6     1       0.4141952966E-02       5    6    1         0.2275639891E+00      0.3262299273E+00
          0                 4           2             5    6     1       0.1087074160E-02       5    6    1         0.5999383635E-01      0.6199699898E-01
          0                 5           2             5    6     1       0.2853074454E-03       5    6    1         0.1573570155E-01      0.1574871545E-01
          0                 6           1             5    6     1       0.7488022315E-04       5    6    1         0.4129883678E-02      0.4130019363E-02

    ------------------------------------------------
       NWT REQUIRED            6 OUTER ITERATIONS 
       AND A TOTAL OF         11 INNER ITERATIONS.
    ------------------------------------------------

 NO OUTPUT CONTROL FOR STRESS PERIOD   34   TIME STEP   20
 
 SOLVING FOR HEAD 
                                                   Max.-Head-Change                         Max.-Flux-Residual
  Residual-Control   Outer-Iter.   Inner-Iter.     Column Row Layer    Maximum-Head-Change  Column Row Layer    Maximum-Flux-Residual          L2-NORM 
          0                 1           2             4    7     1       0.1533480161E+00       4    7    1         0.8119594345E+01      0.1512724398E+02
          0                 2           2             4    8     1       0.2887312101E-01       5    6    1         0.1602516052E+01      0.2564205512E+01
          0                 3           2             4    8     1       0.7753346167E-02       4    8    1         0.4194832463E+00      0.5101892406E+00
          0                 4           2             4    8     1       0.2082010802E-02       4    8    1         0.1129940363E+00      0.1163959898E+00
          0                 5           2             4    8     1       0.5590835495E-03       4    8    1         0.3032826802E-01      0.3039131988E-01
          0                 6           2             4    8     1       0.1501310589E-03       4    8    1         0.8144227152E-02      0.8144777211E-02
          0                 7           1             4    8     1       0.4031478955E-04       4    8    1         0.2186964945E-02      0.2187010644E-02

    ------------------------------------------------
       NWT REQUIRED            7 OUTER ITERATIONS 
       AND A TOTAL OF         13 INNER ITERATIONS.
    ------------------------------------------------

 NO OUTPUT CONTROL FOR STRESS PERIOD   34   TIME STEP   21
 
 SOLVING FOR HEAD 
                                                   Max.-Head-Change                         Max.-Flux-Residual
  Residual-Control   Outer-Iter.   Inner-Iter.     Column Row Layer    Maximum-Head-Change  Column Row Layer    Maximum-Flux-Residual          L2-NORM 
          0                 1           2             4    7     1       0.1511698335E+00       4    7    1         0.8004081308E+01      0.1477551216E+02
          0                 2           2             5    7     1       0.1992981335E-01       5    7    1         0.1127455946E+01      0.1848376539E+01
          0                 3           2             5    7     1       0.5225774798E-02       5    7    1         0.2865360093E+00      0.3111410070E+00
          0                 4           2             5    7     1       0.1370253679E-02       5    7    1         0.7570626371E-01      0.7601894232E-01
          0                 5           2             5    7     1       0.3592947040E-03       5    7    1         0.1982808734E-01      0.1983080501E-01
          0                 6           1             5    7     1       0.9421081985E-04       5    7    1         0.5199195733E-02      0.5199484656E-02

    ------------------------------------------------
       NWT REQUIRED            6 OUTER ITERATIONS 
       AND A TOTAL OF         11 INNER ITERATIONS.
    ------------------------------------------------

 NO OUTPUT CONTROL FOR STRESS PERIOD   34   TIME STEP   22
 
 SOLVING FOR HEAD 
                                                   Max.-Head-Change                         Max.-Flux-Residual
  Residual-Control   Outer-Iter.   Inner-Iter.     Column Row Layer    Maximum-Head-Change  Column Row Layer    Maximum-Flux-Residual          L2-NORM 
          0                 1           2             4    7     1       0.1504432923E+00       4    7    1         0.7906490672E+01      0.1607053899E+02
          0                 2           2             5    7     1       0.2849420826E-01       5    7    1         0.1600838501E+01      0.2176985181E+01
          0                 3           2             5    7     1      -0.2770324248E-02       5    7    1        -0.1592032136E+00      0.1902011272E+00
          0                 4           2             5    7     1       0.1885147931E-03       5    7    1         0.1108197171E-01      0.1190049881E-01
          0                 5           1             5    7     1      -0.7492279157E-05       5    7    1        -0.4505623551E-03      0.4546668741E-03

    ------------------------------------------------
       NWT REQUIRED            5 OUTER ITERATIONS 
       AND A TOTAL OF          9 INNER ITERATIONS.
    ------------------------------------------------

 NO OUTPUT CONTROL FOR STRESS PERIOD   34   TIME STEP   23
 
 SOLVING FOR HEAD 
                                                   Max.-Head-Change                         Max.-Flux-Residual
  Residual-Control   Outer-Iter.   Inner-Iter.     Column Row Layer    Maximum-Head-Change  Column Row Layer    Maximum-Flux-Residual          L2-NORM 
          0                 1           2             4    7     1       0.1492679643E+00       4    7    1         0.7849477835E+01      0.1578221258E+02
          0                 2           2             4    7     1       0.2500658800E-01       4    7    1         0.1378902779E+01      0.1794577954E+01
          0                 3           2             4    7     1       0.6680235935E-02       4    7    1         0.3626203794E+00      0.3720806693E+00
          0                 4           1             4    7     1       0.1785049570E-02       4    7    1         0.9723229593E-01      0.9735558369E-01
          0                 5           1             4    7     1       0.4771321123E-03       4    7    1         0.2596867791E-01      0.2597620413E-01
          0                 6           1             4    7     1       0.1275753136E-03       4    7    1         0.6941971674E-02      0.6942170699E-02
          0                 7           1             4    7     1       0.3412260437E-04       4    7    1         0.1856224019E-02      0.1856505993E-02

    ------------------------------------------------
       NWT REQUIRED            7 OUTER ITERATIONS 
       AND A TOTAL OF         10 INNER ITERATIONS.
    ------------------------------------------------

 NO OUTPUT CONTROL FOR STRESS PERIOD   34   TIME STEP   24
 
 SOLVING FOR HEAD 
                                                   Max.-Head-Change                         Max.-Flux-Residual
  Residual-Control   Outer-Iter.   Inner-Iter.     Column Row Layer    Maximum-Head-Change  Column Row Layer    Maximum-Flux-Residual          L2-NORM 
          0                 1           2             4    7     1       0.1452620914E+00       4    7    1         0.7635151486E+01      0.1548608522E+02
          0                 2           2             4    6     1       0.3719436848E-01       4    6    1         0.2022446406E+01      0.2470896741E+01
          0                 3           2             4    6     1       0.9919749408E-02       4    6    1         0.5416291905E+00      0.5552423375E+00
          0                 4           2             4    6     1       0.2645596144E-02       4    6    1         0.1441671227E+00      0.1444728157E+00
          0                 5           2             4    6     1       0.7055811212E-03       4    6    1         0.3847041662E-01      0.3850049468E-01
          0                 6           2             4    6     1       0.1881786635E-03       4    6    1         0.1025920203E-01      0.1026689320E-01
          0                 7           1             4    6     1       0.5018729971E-04       4    6    1         0.2736168552E-02      0.2738147384E-02

    ------------------------------------------------
       NWT REQUIRED            7 OUTER ITERATIONS 
       AND A TOTAL OF         13 INNER ITERATIONS.
    ------------------------------------------------

 NO OUTPUT CONTROL FOR STRESS PERIOD   34   TIME STEP   25
 
 SOLVING FOR HEAD 
                                                   Max.-Head-Change                         Max.-Flux-Residual
  Residual-Control   Outer-Iter.   Inner-Iter.     Column Row Layer    Maximum-Head-Change  Column Row Layer    Maximum-Flux-Residual          L2-NORM 
          0                 1           2             4    7     1       0.1430365365E+00       4    7    1         0.7520098612E+01      0.1517123582E+02
          0                 2           2             5    8     1       0.2084943201E-01       5    8    1         0.1169526247E+01      0.1811883191E+01
          0                 3           2             5    8     1       0.5469471743E-02       5    8    1         0.3004564244E+00      0.3158095481E+00
          0                 4           1             5    8     1       0.1434830824E-02       5    8    1         0.7921690729E-01      0.7930608934E-01
          0                 5           1             5    8     1       0.3764053870E-03       5    8    1         0.2076538834E-01      0.2076631751E-01
          0                 6           1             5    8     1       0.9874408802E-04       5    8    1         0.5447346107E-02      0.5447642474E-02

    ------------------------------------------------
       NWT REQUIRED            6 OUTER ITERATIONS 
       AND A TOTAL OF          9 INNER ITERATIONS.
    ------------------------------------------------

 NO OUTPUT CONTROL FOR STRESS PERIOD   34   TIME STEP   26
 
 SOLVING FOR HEAD 
                                                   Max.-Head-Change                         Max.-Flux-Residual
  Residual-Control   Outer-Iter.   Inner-Iter.     Column Row Layer    Maximum-Head-Change  Column Row Layer    Maximum-Flux-Residual          L2-NORM 
          0                 1           2             4    7     1       0.1413964869E+00       4    7    1         0.7434813292E+01      0.1490869502E+02
          0                 2           2             4    8     1       0.2123620198E-01       4    8    1         0.1145242961E+01      0.2165256197E+01
          0                 3           2             4    8     1       0.5789394242E-02       4    8    1         0.3103517765E+00      0.4354227917E+00
          0                 4           2             4    8     1       0.1554565938E-02       4    8    1         0.8467408877E-01      0.1030340911E+00
          0                 5           2             4    8     1       0.4174303105E-03       4    8    1         0.2262370317E-01      0.2684263034E-01
          0                 6           2             4    8     1       0.1120880104E-03       4    8    1         0.6081414597E-02      0.7155864318E-02
          0                 7           1             4    8     1       0.3009778395E-04       4    8    1         0.1632707503E-02      0.1909261829E-02

    ------------------------------------------------
       NWT REQUIRED            7 OUTER ITERATIONS 
       AND A TOTAL OF         13 INNER ITERATIONS.
    ------------------------------------------------

 NO OUTPUT CONTROL FOR STRESS PERIOD   34   TIME STEP   27
 
 SOLVING FOR HEAD 
                                                   Max.-Head-Change                         Max.-Flux-Residual
  Residual-Control   Outer-Iter.   Inner-Iter.     Column Row Layer    Maximum-Head-Change  Column Row Layer    Maximum-Flux-Residual          L2-NORM 
          0                 1           2             4    7     1       0.1402191050E+00       4    7    1         0.7375105150E+01      0.1463278638E+02
          0                 2           2             4    8     1       0.2890391268E-01       4    8    1         0.1583120564E+01      0.2456086452E+01
          0                 3           2             5    6     1       0.6515067629E-02       5    6    1         0.3558328538E+00      0.4100945328E+00
          0                 4           2             5    6     1       0.1728584738E-02       5    6    1         0.9462576268E-01      0.1067752544E+00
          0                 5           2             5    6     1       0.4587759589E-03       5    6    1         0.2509835481E-01      0.2846228881E-01
          0                 6           2             5    6     1       0.1217995445E-03       5    6    1         0.6661783080E-02      0.7601038403E-02
          0                 7           1             5    6     1       0.3234613241E-04       5    6    1         0.1768764072E-02      0.2030433191E-02

    ------------------------------------------------
       NWT REQUIRED            7 OUTER ITERATIONS 
       AND A TOTAL OF         13 INNER ITERATIONS.
    ------------------------------------------------

 NO OUTPUT CONTROL FOR STRESS PERIOD   34   TIME STEP   28
 
 SOLVING FOR HEAD 
                                                   Max.-Head-Change                         Max.-Flux-Residual
  Residual-Control   Outer-Iter.   Inner-Iter.     Column Row Layer    Maximum-Head-Change  Column Row Layer    Maximum-Flux-Residual          L2-NORM 
          0                 1           2             4    7     1       0.1393983389E+00       4    7    1         0.7336436384E+01      0.1435955368E+02
          0                 2           2             5    7     1       0.2910237822E-01       5    7    1         0.1595032918E+01      0.2296575063E+01
          0                 3           2             5    7     1       0.7768101646E-02       5    7    1         0.4226129910E+00      0.5571403397E+00
          0                 4           2             5    7     1       0.2074488453E-02       5    7    1         0.1130024026E+00      0.1495693688E+00
          0                 5           2             5    7     1       0.5542591777E-03       5    7    1         0.3017404313E-01      0.4037253475E-01
          0                 6           2             5    7     1       0.1481551652E-03       5    7    1         0.8063202588E-02      0.1090611014E-01
          0                 7           1             5    7     1       0.3962039676E-04       5    7    1         0.2155577737E-02      0.2946928718E-02

    ------------------------------------------------
       NWT REQUIRED            7 OUTER ITERATIONS 
       AND A TOTAL OF         13 INNER ITERATIONS.
    ------------------------------------------------

 NO OUTPUT CONTROL FOR STRESS PERIOD   34   TIME STEP   29
 
 SOLVING FOR HEAD 
                                                   Max.-Head-Change                         Max.-Flux-Residual
  Residual-Control   Outer-Iter.   Inner-Iter.     Column Row Layer    Maximum-Head-Change  Column Row Layer    Maximum-Flux-Residual          L2-NORM 
          0                 1           2             4    7     1       0.1361222769E+00       4    7    1         0.7163267831E+01      0.1409633135E+02
          0                 2           2             4    7     1       0.2066582501E-01       4    7    1         0.1125521957E+01      0.1838759814E+01
          0                 3           2             4    6     1       0.5095333876E-02       4    6    1         0.2788499619E+00      0.3090864558E+00
          0                 4           2             4    6     1       0.1358856987E-02       4    6    1         0.7399860236E-01      0.7447812552E-01
          0                 5           2             4    6     1       0.3623894498E-03       4    6    1         0.1976094118E-01      0.1976312440E-01
          0                 6           1             4    6     1       0.9664452661E-04       4    6    1         0.5268906422E-02      0.5269016452E-02

    ------------------------------------------------
       NWT REQUIRED            6 OUTER ITERATIONS 
       AND A TOTAL OF         11 INNER ITERATIONS.
    ------------------------------------------------

 NO OUTPUT CONTROL FOR STRESS PERIOD   34   TIME STEP   30



 STREAM LISTING     PERIOD     34   STEP       30

 LAYER ROW COL. STREAM  RCH.  FLOW INTO     FLOW TO   FLOW OUT OF   OVRLND.     DIRECT     STREAM       STREAM     STREAM     STREAM   STREAMBED  STREAMBED
                SEG.NO.  NO.  STRM. RCH.    AQUIFER    STRM. RCH.    RUNOFF     PRECIP       ET          HEAD       DEPTH      WIDTH   CONDCTNC.   GRADIENT

   1    1    1     1     1    1.9000E+01  2.1427E-01   1.8786E+01  0.000E+00  0.000E+00  0.000E+00  1.09413E+03  1.082E+00  1.166E+01  5.249E-02  1.361E+00
   1    2    2     1     2    1.8786E+01  3.3054E-01   1.8455E+01  0.000E+00  0.000E+00  0.000E+00  1.08914E+03  1.077E+00  1.158E+01  8.107E-02  1.359E+00
   1    3    3     1     3    1.8455E+01  2.8064E-01   1.8175E+01  0.000E+00  0.000E+00  0.000E+00  1.08349E+03  1.072E+00  1.149E+01  6.892E-02  1.357E+00
   1    3    4     1     4    1.8175E+01  2.5740E-01   1.7917E+01  0.000E+00  0.000E+00  0.000E+00  1.07848E+03  1.068E+00  1.140E+01  6.328E-02  1.356E+00
   1    4    5     2     1    1.5917E+01  3.0542E-01   1.5612E+01  0.000E+00  0.000E+00  0.000E+00  1.07285E+03  9.157E-01  1.200E+01  7.800E-02  1.305E+00
   1    5    6     2     2    1.5612E+01  2.3438E-01   1.5377E+01  0.000E+00  0.000E+00  0.000E+00  1.06742E+03  9.063E-01  1.200E+01  6.000E-02  1.302E+00
   1    6    6     2     3    1.5377E+01  2.3388E-01   1.5143E+01  0.000E+00  0.000E+00  0.000E+00  1.06269E+03  8.980E-01  1.200E+01  6.000E-02  1.299E+00
   1    7    6     2     4    1.5143E+01  2.3338E-01   1.4910E+01  0.000E+00  0.000E+00  0.000E+00  1.05797E+03  8.897E-01  1.200E+01  6.000E-02  1.297E+00
   1    8    6     2     5    1.4910E+01  2.3289E-01   1.4677E+01  0.000E+00  0.000E+00  0.000E+00  1.05324E+03  8.814E-01  1.200E+01  6.000E-02  1.294E+00
   1    3    5     3     1    2.0000E+00  2.8252E-01   1.7175E+00  0.000E+00  0.000E+00  0.000E+00  1.07555E+03  1.909E+00  9.636E+00  7.227E-02  1.955E+00
   1    3    6     3     2    1.7175E+00  2.4905E-01   1.4684E+00  0.000E+00  0.000E+00  0.000E+00  1.07264E+03  1.727E+00  8.909E+00  6.682E-02  1.864E+00
   1    3    7     3     3    1.4684E+00  1.9718E-01   1.2712E+00  0.000E+00  0.000E+00  0.000E+00  1.06987E+03  1.555E+00  8.218E+00  5.547E-02  1.777E+00
   1    4    8     3     4    1.2712E+00  2.2567E-01   1.0456E+00  0.000E+00  0.000E+00  0.000E+00  1.06682E+03  1.364E+00  7.455E+00  6.709E-02  1.682E+00
   1    5    8     3     5    1.0456E+00  1.5790E-01   8.8768E-01  0.000E+00  0.000E+00  0.000E+00  1.06362E+03  1.164E+00  6.655E+00  4.991E-02  1.582E+00
   1    6    8     3     6    8.8768E-01  5.5980E-02   8.3170E-01  0.000E+00  0.000E+00  0.000E+00  1.06158E+03  1.036E+00  6.145E+00  1.844E-02  1.518E+00
   1    5   10     4     1    1.0000E+01  9.0919E-02   9.9091E+00  0.000E+00  0.000E+00  0.000E+00  1.07836E+03  6.368E-01  1.000E+01  2.500E-02  1.212E+00
   1    5    9     4     2    9.9091E+00  1.8158E-01   9.7275E+00  0.000E+00  0.000E+00  0.000E+00  1.07154E+03  6.315E-01  1.000E+01  5.000E-02  1.211E+00
   1    6    8     4     3    9.7275E+00  1.2689E-01   9.6006E+00  0.000E+00  0.000E+00  0.000E+00  1.06381E+03  6.256E-01  1.000E+01  3.500E-02  1.209E+00
   1    6    8     5     1    1.0432E+01  2.2686E-01   1.0205E+01  0.000E+00  0.000E+00  0.000E+00  1.05868E+03  6.790E-01  1.542E+01  6.166E-02  1.226E+00
   1    7    7     5     2    1.0205E+01  2.7894E-01   9.9265E+00  0.000E+00  0.000E+00  0.000E+00  1.05417E+03  6.732E-01  1.519E+01  7.594E-02  1.224E+00
   1    8    7     5     3    9.9265E+00  1.9221E-01   9.7343E+00  0.000E+00  0.000E+00  0.000E+00  1.04992E+03  6.676E-01  1.497E+01  5.241E-02  1.223E+00
   1    8    6     5     4    9.7343E+00  1.3577E-01   9.5985E+00  0.000E+00  0.000E+00  0.000E+00  1.04691E+03  6.637E-01  1.482E+01  3.706E-02  1.221E+00
   1    9    6     6     1    2.4276E+01  2.5176E-01   2.4024E+01  0.000E+00  0.000E+00  0.000E+00  1.04392E+03  1.196E+00  1.200E+01  6.000E-02  1.399E+00
   1   10    7     6     2    2.4024E+01  2.5131E-01   2.3773E+01  0.000E+00  0.000E+00  0.000E+00  1.03937E+03  1.188E+00  1.200E+01  6.000E-02  1.396E+00
   1   11    7     6     3    2.3773E+01  2.5086E-01   2.3522E+01  0.000E+00  0.000E+00  0.000E+00  1.03482E+03  1.181E+00  1.200E+01  6.000E-02  1.394E+00
   1   12    7     6     4    2.3522E+01  2.5041E-01   2.3271E+01  0.000E+00  0.000E+00  0.000E+00  1.03026E+03  1.173E+00  1.200E+01  6.000E-02  1.391E+00
   1   13    7     6     5    2.3271E+01  7.3236E-03   2.3264E+01  0.000E+00  0.000E+00  0.000E+00  1.02708E+03  1.170E+00  1.200E+01  2.400E-02  1.017E-01
   1   14    9     7     1    1.5000E+02  1.3544E+00   1.4865E+02  0.000E+00  0.000E+00  0.000E+00  1.03987E+03  2.288E+00  5.529E+01  5.593E-01  8.072E-01
   1   13    8     7     2    1.4865E+02  1.9212E+00   1.4672E+02  0.000E+00  0.000E+00  0.000E+00  1.03478E+03  2.279E+00  5.526E+01  6.148E-01  1.042E+00
   1   13    7     7     3    1.4672E+02  1.6279E+00   1.4510E+02  0.000E+00  0.000E+00  0.000E+00  1.02969E+03  2.269E+00  5.521E+01  5.584E-01  9.718E-01
   1   13    6     8     1    1.6836E+02  1.0669E+00   1.6729E+02  0.000E+00  0.000E+00  0.000E+00  1.02481E+03  2.938E+00  4.260E+01  4.341E-01  8.192E-01
   1   13    5     8     2    1.6729E+02  3.1156E-01   1.6698E+02  0.000E+00  0.000E+00  0.000E+00  1.01856E+03  2.933E+00  4.254E+01  4.334E-01  2.396E-01
   1   13    4     8     3    1.6698E+02 -1.9782E+00   1.6896E+02  0.000E+00  0.000E+00  0.000E+00  1.01231E+03  2.939E+00  4.261E+01  4.343E+00 -1.518E-01
   1   13    3     8     4    1.6896E+02 -3.4284E+00   1.7239E+02  0.000E+00  0.000E+00  0.000E+00  1.00608E+03  2.957E+00  4.287E+01  4.369E+00 -2.616E-01
   1   13    2     8     5    1.7239E+02 -2.5227E+00   1.7491E+02  0.000E+00  0.000E+00  0.000E+00  9.99851E+02  2.976E+00  4.315E+01  4.397E+00 -1.912E-01
   1   13    1     8     6    1.7491E+02 -1.9685E+00   1.7688E+02  0.000E+00  0.000E+00  0.000E+00  9.94865E+02  2.990E+00  4.336E+01  2.651E+00 -2.475E-01





UNSATURATED ZONE PACKAGE VOLUMETRIC BUDGET FOR  TIME STEP    30 STRESS PERIOD   34
  ------------------------------------------------------------------------------



     CUMULATIVE VOLUMES      L**3       RATES FOR THIS TIME STEP      L**3/T
     ------------------                 ------------------------

           IN:                                      IN:
           ---                                      ---
        INFILTRATION =  1501148997.1555          INFILTRATION =          12.0675

          OUT:                                     OUT:
          ----                                     ----
              UZF ET =  1285020846.9433                UZF ET =          12.0675
        UZF RECHARGE =   187434292.0003          UZF RECHARGE =          31.4340

            IN - OUT =    28693858.2118              IN - OUT =         -31.4340

          STORAGE:                                 STORAGE:
          --------                                 --------
      STORAGE CHANGE =    28693836.9202        STORAGE CHANGE =         -31.4340

 PERCENT DISCREPANCY IS DIFFERENCE BETWEEN IN-OUT MINUS CHANGE IN STORAGE
 DIVIDED BY THE AVERAGE OF IN AND OUT TIMES 100

 PERCENT DISCREPANCY =           0.00     PERCENT DISCREPANCY =           0.00






1
  VOLUMETRIC BUDGET FOR AGRICULTURAL FIELDS AT  END OF TIME STEP   30, STRESS PERIOD  34
  ------------------------------------------------------------------------------

     CUMULATIVE VOLUMES      L**3       RATES FOR THIS TIME STEP      L**3/T
     ------------------                 ------------------------

           IN:                                      IN:
           ---                                      ---
               AG WELLS  =  1427519104.0000                 AG WELLS  =          11.2200
      DIVERSION SEGMENTS =           0.0000        DIVERSION SEGMENTS =           0.0000
           GW IRRIGATION =           0.0000             GW IRRIGATION =           0.0000
           SW IRRIGATION =           0.0000             SW IRRIGATION =           0.0000
        SYSTEM LOSSES GW =           0.0000          SYSTEM LOSSES GW =           0.0000
        SYSTEM LOSSES SW =           0.0000          SYSTEM LOSSES SW =           0.0000

                TOTAL IN =  1427519104.0000                  TOTAL IN =          11.2200

          OUT:                                     OUT:
          ----                                     ----
               AG WELLS  =           0.0000                 AG WELLS  =           0.0000
      DIVERSION SEGMENTS =           0.0000        DIVERSION SEGMENTS =           0.0000
           GW IRRIGATION =  1427519104.0000             GW IRRIGATION =          11.2200
           SW IRRIGATION =           0.0000             SW IRRIGATION =           0.0000
        SYSTEM LOSSES GW =           0.0000          SYSTEM LOSSES GW =           0.0000
        SYSTEM LOSSES SW =           0.0000          SYSTEM LOSSES SW =           0.0000

               TOTAL OUT =  1427519104.0000                 TOTAL OUT =          11.2200

                IN - OUT =           0.0000                  IN - OUT =           0.0000

     PERCENT DISCREPANCY =           0.00         PERCENT DISCREPANCY =           0.00



1
  VOLUMETRIC BUDGET FOR ENTIRE MODEL AT END OF TIME STEP   30, STRESS PERIOD  34
  ------------------------------------------------------------------------------

     CUMULATIVE VOLUMES      L**3       RATES FOR THIS TIME STEP      L**3/T
     ------------------                 ------------------------

           IN:                                      IN:
           ---                                      ---
             STORAGE     =  1756734976.0000               STORAGE     =          17.5555
       CONSTANT HEAD     =           0.0000         CONSTANT HEAD     =           0.0000
     HEAD DEP BOUNDS     =    24824174.0000       HEAD DEP BOUNDS     =           0.2870
      STREAM LEAKAGE     =  1066508288.0000        STREAM LEAKAGE     =          12.0179
        UZF RECHARGE     =   187434304.0000          UZF RECHARGE     =          31.4340
               GW ET     =           0.0000                 GW ET     =           0.0000
     SURFACE LEAKAGE     =           0.0000       SURFACE LEAKAGE     =           0.0000
           AG WELLS      =           0.0000             AG WELLS      =           0.0000

                TOTAL IN =  3035501824.0000                  TOTAL IN =          61.2944

          OUT:                                     OUT:
          ----                                     ----
             STORAGE     =   672285824.0000               STORAGE     =          39.8860
       CONSTANT HEAD     =           0.0000         CONSTANT HEAD     =           0.0000
     HEAD DEP BOUNDS     =    25431916.0000       HEAD DEP BOUNDS     =           0.2891
      STREAM LEAKAGE     =   892722496.0000        STREAM LEAKAGE     =           9.8979
        UZF RECHARGE     =           0.0000          UZF RECHARGE     =           0.0000
               GW ET     =    17516984.0000                 GW ET     =           0.0000
     SURFACE LEAKAGE     =           0.0000       SURFACE LEAKAGE     =           0.0000
           AG WELLS      =  1427519104.0000             AG WELLS      =          11.2200

               TOTAL OUT =  3035476224.0000                 TOTAL OUT =          61.2930

                IN - OUT =       25600.0000                  IN - OUT =       1.4305E-03

     PERCENT DISCREPANCY =           0.00         PERCENT DISCREPANCY =           0.00






         TIME SUMMARY AT END OF TIME STEP   30 IN STRESS PERIOD   34
                    SECONDS     MINUTES      HOURS       DAYS        YEARS
                    -----------------------------------------------------------
   TIME STEP LENGTH  87667.      1461.1      24.352      1.0147     2.77799E-03
 STRESS PERIOD TIME 2.63000E+06  43833.      730.56      30.440     8.33397E-02
         TOTAL TIME 8.68762E+07 1.44794E+06  24132.      1005.5      2.7529    
1
1
                            STRESS PERIOD NO.   35, LENGTH =   2630000.    
                            -----------------------------------------------

                              NUMBER OF TIME STEPS =    30

                               MULTIPLIER FOR DELT =     1.000

                            INITIAL TIME STEP SIZE =   87666.66    

 REUSING NON-PARAMETER GHB CELLS FROM LAST STRESS PERIOD

      2 GHB CELLS

 REUSING STREAM SEGMENT DATA FROM LAST STRESS PERIOD



            AREAL INFILTRATION RATE
 READING ON UNIT   19 WITH FORMAT: (FREE)              

            1           2           3           4           5           6           7           8           9          10
 ........................................................................................................................
   1   1.0000E-10  2.0000E-10   0.000       0.000       0.000       0.000       0.000       0.000       0.000       0.000    
   2   2.0000E-10  1.0000E-10  2.0000E-10   0.000       0.000      8.0000E-10  8.0000E-10  5.0000E-10   0.000       0.000    
   3    0.000      5.0000E-10  1.0000E-10  1.0000E-10  8.0000E-10  8.0000E-10  5.0000E-10  5.0000E-10   0.000       0.000    
   4   8.0000E-10  5.0000E-10  1.0000E-10  1.0000E-10  1.0000E-10  1.0000E-10  1.0000E-10  1.0000E-10  2.0000E-10   0.000    
   5   8.0000E-10  5.0000E-10  1.0000E-10  1.0000E-10  1.0000E-10  1.0000E-10  1.0000E-10  1.0000E-10  1.0000E-10  1.0000E-10
   6   8.0000E-10  5.0000E-10  5.0000E-10  2.0000E-10  2.0000E-10  1.0000E-10  1.0000E-10  1.0000E-10  1.0000E-10  5.0000E-10
   7   8.0000E-10  5.0000E-10  5.0000E-10  2.0000E-10  2.0000E-10  1.0000E-10  1.0000E-10  2.0000E-10  2.0000E-10   0.000    
   8    0.000      5.0000E-10  5.0000E-10  2.0000E-10  2.0000E-10  1.0000E-10  1.0000E-10  2.0000E-10  5.0000E-10   0.000    
   9    0.000      5.0000E-10  5.0000E-10  2.0000E-10  2.0000E-10  1.0000E-10  1.0000E-10  2.0000E-10  5.0000E-10   0.000    
  10    0.000      5.0000E-10  5.0000E-10  2.0000E-10  2.0000E-10  1.0000E-10  1.0000E-10  2.0000E-10  5.0000E-10  8.0000E-10
  11    0.000      1.0000E-10  1.0000E-10  1.0000E-10  1.0000E-10  1.0000E-10  1.0000E-10  2.0000E-10  5.0000E-10   0.000    
  12   1.0000E-10  1.0000E-10  1.0000E-10  1.0000E-10  1.0000E-10  1.0000E-10  1.0000E-10  1.0000E-10  2.0000E-10   0.000    
  13   1.0000E-10  1.0000E-10  2.0000E-10  2.0000E-10  2.0000E-10  2.0000E-10  2.0000E-10  1.0000E-10  1.0000E-10   0.000    
  14    0.000      2.0000E-10  5.0000E-10  5.0000E-10  5.0000E-10  5.0000E-10  5.0000E-10  2.0000E-10  1.0000E-10   0.000    
  15    0.000       0.000      8.0000E-10  8.0000E-10  8.0000E-10  8.0000E-10   0.000       0.000       0.000       0.000    

                  ET RATE =  5.000000E-09

 USING ET EXTINCTION DEPTH FROM PREVIOUS STRESS PERIOD. CURRENT PERIOD IS:      35

 USING EXTINCTION WATER CONTENT FROM PREVIOUS STRESS PERIOD. CURRENT PERIOD IS:      35

 USING AIR ENTRY PRESSURE FROM PREVIOUS STRESS PERIOD. CURRENT PERIOD IS:      35

 USING ROOT PRESSURE HEAD FROM PREVIOUS STRESS PERIOD. CURRENT PERIOD IS:      35

 USING ROOT ACTIVITY FROM PREVIOUS STRESS PERIOD. CURRENT PERIOD IS:      35

 PROCESSING AG STRESS PERIOD DATA

 READING AG STRESS PERIOD DATA

 READING IRRIGATION WELL

 END PROCESSING AG STRESS PERIOD DATA OPTIONS
 
 SOLVING FOR HEAD 
                                                   Max.-Head-Change                         Max.-Flux-Residual
  Residual-Control   Outer-Iter.   Inner-Iter.     Column Row Layer    Maximum-Head-Change  Column Row Layer    Maximum-Flux-Residual          L2-NORM 
          0                 1           2             4    7     1       0.1692077541E+00       4    7    1         0.8888559280E+01      0.1828547811E+02
          0                 2           2             4    6     1       0.2786705934E-01       4    6    1         0.1542659187E+01      0.2248057955E+01
          0                 3           2             4    6     1      -0.2709333853E-02       4    6    1        -0.1535249373E+00      0.1918364696E+00
          0                 4           2             4    6     1       0.1843626252E-03       4    6    1         0.1069400004E-01      0.1170661223E-01
          0                 5           1             4    6     1      -0.7327140012E-05       4    6    1        -0.4350760919E-03      0.4398797115E-03

    ------------------------------------------------
       NWT REQUIRED            5 OUTER ITERATIONS 
       AND A TOTAL OF          9 INNER ITERATIONS.
    ------------------------------------------------

 NO OUTPUT CONTROL FOR STRESS PERIOD   35   TIME STEP    1
 
 SOLVING FOR HEAD 
                                                   Max.-Head-Change                         Max.-Flux-Residual
  Residual-Control   Outer-Iter.   Inner-Iter.     Column Row Layer    Maximum-Head-Change  Column Row Layer    Maximum-Flux-Residual          L2-NORM 
          0                 1           2             4    7     1       0.1678468694E+00       4    7    1         0.8823033665E+01      0.1712266429E+02
          0                 2           2             4    7     1      -0.1631852493E-01       4    7    1        -0.8818556278E+00      0.1711395431E+01
          0                 3           2             4    7     1       0.1110389182E-02       4    7    1         0.6168309943E-01      0.1197105524E+00
          0                 4           1             4    7     1      -0.4412800915E-04       4    7    1        -0.2519677547E-02      0.4890253154E-02

    ------------------------------------------------
       NWT REQUIRED            4 OUTER ITERATIONS 
       AND A TOTAL OF          7 INNER ITERATIONS.
    ------------------------------------------------

 NO OUTPUT CONTROL FOR STRESS PERIOD   35   TIME STEP    2
 
 SOLVING FOR HEAD 
                                                   Max.-Head-Change                         Max.-Flux-Residual
  Residual-Control   Outer-Iter.   Inner-Iter.     Column Row Layer    Maximum-Head-Change  Column Row Layer    Maximum-Flux-Residual          L2-NORM 
          0                 1           2             4    7     1       0.1658478242E+00       4    7    1         0.8720814777E+01      0.1681929935E+02
          0                 2           2             4    8     1       0.2015926681E-01       4    8    1         0.1098654929E+01      0.1677585484E+01
          0                 3           2             4    8     1       0.5399487310E-02       4    8    1         0.2933334847E+00      0.3099670660E+00
          0                 4           2             4    8     1       0.1446348235E-02       4    8    1         0.7862306699E-01      0.7958732070E-01
          0                 5           2             4    8     1       0.3874702907E-03       4    8    1         0.2105885982E-01      0.2127728664E-01
          0                 6           1             4    8     1       0.1038131672E-03       4    8    1         0.5641782083E-02      0.5694495278E-02
          0                 7           1             4    8     1       0.2781752932E-04       4    8    1         0.1511609641E-02      0.1524171041E-02

    ------------------------------------------------
       NWT REQUIRED            7 OUTER ITERATIONS 
       AND A TOTAL OF         12 INNER ITERATIONS.
    ------------------------------------------------

 NO OUTPUT CONTROL FOR STRESS PERIOD   35   TIME STEP    3
 
 SOLVING FOR HEAD 
                                                   Max.-Head-Change                         Max.-Flux-Residual
  Residual-Control   Outer-Iter.   Inner-Iter.     Column Row Layer    Maximum-Head-Change  Column Row Layer    Maximum-Flux-Residual          L2-NORM 
          0                 1           2             4    7     1       0.1637864053E+00       4    7    1         0.8615697901E+01      0.1650352479E+02
          0                 2           2             4    7     1       0.4484871888E-01       4    7    1         0.2413209836E+01      0.3438476321E+01
          0                 3           2             4    7     1       0.7676563086E-02       4    7    1         0.4135844996E+00      0.6428665961E+00
          0                 4           2             5    7     1       0.1686053808E-02       5    7    1         0.9239493814E-01      0.1331759890E+00
          0                 5           2             5    7     1       0.4509212750E-03       5    7    1         0.2448852337E-01      0.3374444592E-01
          0                 6           2             5    7     1       0.1206039360E-03       5    7    1         0.6563239256E-02      0.9015453686E-02
          0                 7           1             5    7     1       0.3225904687E-04       5    7    1         0.1754878952E-02      0.2414636357E-02

    ------------------------------------------------
       NWT REQUIRED            7 OUTER ITERATIONS 
       AND A TOTAL OF         13 INNER ITERATIONS.
    ------------------------------------------------

 NO OUTPUT CONTROL FOR STRESS PERIOD   35   TIME STEP    4
 
 SOLVING FOR HEAD 
                                                   Max.-Head-Change                         Max.-Flux-Residual
  Residual-Control   Outer-Iter.   Inner-Iter.     Column Row Layer    Maximum-Head-Change  Column Row Layer    Maximum-Flux-Residual          L2-NORM 
          0                 1           2             4    7     1       0.1596423118E+00       4    7    1         0.8396148068E+01      0.1614353936E+02
          0                 2           2             5    6     1       0.2912072104E-01       5    6    1         0.1566749836E+01      0.2708815054E+01
          0                 3           2             4    6     1       0.6571590836E-02       4    6    1         0.3599182244E+00      0.4228877370E+00
          0                 4           2             4    6     1       0.1752441434E-02       4    6    1         0.9541298126E-01      0.9657446578E-01
          0                 5           2             4    6     1       0.4673227861E-03       4    6    1         0.2548562021E-01      0.2549174662E-01
          0                 6           2             4    6     1       0.1246207396E-03       4    6    1         0.6794056453E-02      0.6794328838E-02
          0                 7           1             4    6     1       0.3323255496E-04       4    6    1         0.1811853588E-02      0.1811903401E-02

    ------------------------------------------------
       NWT REQUIRED            7 OUTER ITERATIONS 
       AND A TOTAL OF         13 INNER ITERATIONS.
    ------------------------------------------------

 NO OUTPUT CONTROL FOR STRESS PERIOD   35   TIME STEP    5
 
 SOLVING FOR HEAD 
                                                   Max.-Head-Change                         Max.-Flux-Residual
  Residual-Control   Outer-Iter.   Inner-Iter.     Column Row Layer    Maximum-Head-Change  Column Row Layer    Maximum-Flux-Residual          L2-NORM 
          0                 1           2             4    7     1       0.1588665897E+00       4    7    1         0.8362394713E+01      0.1582678602E+02
          0                 2           2             4    6     1       0.1932665882E-01       4    6    1         0.1075945940E+01      0.1768253814E+01
          0                 3           2             4    6     1      -0.1879004359E-02       4    6    1        -0.1068998169E+00      0.1454627411E+00
          0                 4           2             4    6     1       0.1278613884E-03       4    6    1         0.7434166281E-02      0.8479450187E-02
          0                 5           1             4    6     1      -0.5081618189E-05       4    6    1        -0.3019710889E-03      0.3069347683E-03

    ------------------------------------------------
       NWT REQUIRED            5 OUTER ITERATIONS 
       AND A TOTAL OF          9 INNER ITERATIONS.
    ------------------------------------------------

 NO OUTPUT CONTROL FOR STRESS PERIOD   35   TIME STEP    6
 
 SOLVING FOR HEAD 
                                                   Max.-Head-Change                         Max.-Flux-Residual
  Residual-Control   Outer-Iter.   Inner-Iter.     Column Row Layer    Maximum-Head-Change  Column Row Layer    Maximum-Flux-Residual          L2-NORM 
          0                 1           2             4    7     1       0.1572049951E+00       4    7    1         0.8278419443E+01      0.1556389147E+02
          0                 2           2             4    7     1      -0.1528395465E-01       4    7    1        -0.8274255648E+00      0.1555610737E+01
          0                 3           2             4    7     1       0.1039993137E-02       4    7    1         0.5787593369E-01      0.1088142139E+00
          0                 4           1             4    7     1      -0.4133049492E-04       4    7    1        -0.2364165014E-02      0.4445181511E-02

    ------------------------------------------------
       NWT REQUIRED            4 OUTER ITERATIONS 
       AND A TOTAL OF          7 INNER ITERATIONS.
    ------------------------------------------------

 NO OUTPUT CONTROL FOR STRESS PERIOD   35   TIME STEP    7
 
 SOLVING FOR HEAD 
                                                   Max.-Head-Change                         Max.-Flux-Residual
  Residual-Control   Outer-Iter.   Inner-Iter.     Column Row Layer    Maximum-Head-Change  Column Row Layer    Maximum-Flux-Residual          L2-NORM 
          0                 1           2             4    7     1       0.1550831913E+00       4    7    1         0.8167928803E+01      0.1532560952E+02
          0                 2           2             4    7     1       0.2428406995E-01       4    7    1         0.1348999974E+01      0.1870753482E+01
          0                 3           2             4    7     1       0.6492515917E-02       4    7    1         0.3514413097E+00      0.3631548342E+00
          0                 4           1             4    7     1       0.1735817944E-02       4    7    1         0.9454354178E-01      0.9460157254E-01
          0                 5           1             4    7     1       0.4640822548E-03       4    7    1         0.2525322739E-01      0.2525432996E-01
          0                 6           1             4    7     1       0.1240754412E-03       4    7    1         0.6751362910E-02      0.6751767694E-02
          0                 7           1             4    7     1       0.3317238500E-04       4    7    1         0.1805015998E-02      0.1805126066E-02

    ------------------------------------------------
       NWT REQUIRED            7 OUTER ITERATIONS 
       AND A TOTAL OF         10 INNER ITERATIONS.
    ------------------------------------------------

 NO OUTPUT CONTROL FOR STRESS PERIOD   35   TIME STEP    8
 
 SOLVING FOR HEAD 
                                                   Max.-Head-Change                         Max.-Flux-Residual
  Residual-Control   Outer-Iter.   Inner-Iter.     Column Row Layer    Maximum-Head-Change  Column Row Layer    Maximum-Flux-Residual          L2-NORM 
          0                 1           2             4    7     1       0.1506423079E+00       4    7    1         0.7929361064E+01      0.1507572519E+02
          0                 2           2             4    7     1       0.1684027041E-01       4    7    1         0.9435571916E+00      0.1591444678E+01
          0                 3           2             4    7     1      -0.1637237995E-02       4    7    1        -0.9351403735E-01      0.1299393322E+00
          0                 4           1             4    7     1       0.1114104355E-03       4    7    1         0.6487604599E-02      0.7489138006E-02
          0                 5           1             4    7     1      -0.4427813382E-05       4    7    1        -0.2628968673E-03      0.2678154575E-03

    ------------------------------------------------
       NWT REQUIRED            5 OUTER ITERATIONS 
       AND A TOTAL OF          8 INNER ITERATIONS.
    ------------------------------------------------

 NO OUTPUT CONTROL FOR STRESS PERIOD   35   TIME STEP    9
 
 SOLVING FOR HEAD 
                                                   Max.-Head-Change                         Max.-Flux-Residual
  Residual-Control   Outer-Iter.   Inner-Iter.     Column Row Layer    Maximum-Head-Change  Column Row Layer    Maximum-Flux-Residual          L2-NORM 
          0                 1           2             4    7     1       0.1462116336E+00       4    7    1         0.7748143598E+01      0.1368203983E+02
          0                 2           2             4    7     1      -0.1394099145E-01       4    7    1        -0.7744226278E+00      0.1172366798E+01
          0                 3           2             4    6     1       0.1880370449E-02       4    6    1         0.1029108145E+00      0.1509690738E+00
          0                 4           2             4    6     1       0.4934678768E-03       4    6    1         0.2728786245E-01      0.3527942032E-01
          0                 5           2             4    6     1       0.1294007167E-03       4    6    1         0.7149952183E-02      0.9403060676E-02
          0                 6           1             4    6     1       0.3390359801E-04       4    6    1         0.1874704876E-02      0.2518833556E-02

    ------------------------------------------------
       NWT REQUIRED            6 OUTER ITERATIONS 
       AND A TOTAL OF         11 INNER ITERATIONS.
    ------------------------------------------------

 NO OUTPUT CONTROL FOR STRESS PERIOD   35   TIME STEP   10
 
 SOLVING FOR HEAD 
                                                   Max.-Head-Change                         Max.-Flux-Residual
  Residual-Control   Outer-Iter.   Inner-Iter.     Column Row Layer    Maximum-Head-Change  Column Row Layer    Maximum-Flux-Residual          L2-NORM 
          0                 1           2             4    7     1       0.1423921826E+00       4    7    1         0.7613935722E+01      0.1215392429E+02
          0                 2           2             4    6     1       0.3384514539E-01       4    6    1         0.1836030032E+01      0.2487966245E+01
          0                 3           2             4    6     1       0.9174707030E-02       4    6    1         0.4934572891E+00      0.6282150913E+00
          0                 4           2             5    6     1       0.1895401359E-02       5    6    1         0.1035885463E+00      0.1211419708E+00
          0                 5           2             5    6     1       0.4973613325E-03       5    6    1         0.2753463435E-01      0.2824098995E-01
          0                 6           2             5    6     1       0.1305093954E-03       5    6    1         0.7192473829E-02      0.7206725448E-02
          0                 7           1             5    6     1       0.3424616560E-04       5    6    1         0.1889368674E-02      0.1889430860E-02

    ------------------------------------------------
       NWT REQUIRED            7 OUTER ITERATIONS 
       AND A TOTAL OF         13 INNER ITERATIONS.
    ------------------------------------------------

 NO OUTPUT CONTROL FOR STRESS PERIOD   35   TIME STEP   11
 
 SOLVING FOR HEAD 
                                                   Max.-Head-Change                         Max.-Flux-Residual
  Residual-Control   Outer-Iter.   Inner-Iter.     Column Row Layer    Maximum-Head-Change  Column Row Layer    Maximum-Flux-Residual          L2-NORM 
          0                 1           2             4    7     1       0.1389474155E+00       4    7    1         0.7436600911E+01      0.1096316004E+02
          0                 2           2             4    7     1      -0.1350928421E-01       4    7    1        -0.7433117209E+00      0.1095812577E+01
          0                 3           2             4    7     1       0.9192441722E-03       4    7    1         0.5199287145E-01      0.7665453004E-01
          0                 4           1             4    7     1      -0.3653251902E-04       4    7    1        -0.2123892427E-02      0.3131631828E-02

    ------------------------------------------------
       NWT REQUIRED            4 OUTER ITERATIONS 
       AND A TOTAL OF          7 INNER ITERATIONS.
    ------------------------------------------------

 NO OUTPUT CONTROL FOR STRESS PERIOD   35   TIME STEP   12
 
 SOLVING FOR HEAD 
                                                   Max.-Head-Change                         Max.-Flux-Residual
  Residual-Control   Outer-Iter.   Inner-Iter.     Column Row Layer    Maximum-Head-Change  Column Row Layer    Maximum-Flux-Residual          L2-NORM 
          0                 1           2             4    7     1       0.1349577345E+00       4    7    1         0.7219316060E+01      0.1051836170E+02
          0                 2           2             4    7     1       0.2455041615E-01       4    7    1         0.1352313855E+01      0.1553514439E+01
          0                 3           2             4    7     1       0.6548498773E-02       4    7    1         0.3560271822E+00      0.3601305475E+00
          0                 4           1             4    7     1       0.1746729067E-02       4    7    1         0.9525762206E-01      0.9527607066E-01
          0                 5           1             4    7     1       0.4659178238E-03       4    7    1         0.2539691595E-01      0.2539761541E-01
          0                 6           1             4    7     1       0.1242776942E-03       4    7    1         0.6774388957E-02      0.6774576624E-02
          0                 7           1             4    7     1       0.3314950584E-04       4    7    1         0.1806974258E-02      0.1807026300E-02

    ------------------------------------------------
       NWT REQUIRED            7 OUTER ITERATIONS 
       AND A TOTAL OF         10 INNER ITERATIONS.
    ------------------------------------------------

 NO OUTPUT CONTROL FOR STRESS PERIOD   35   TIME STEP   13
 
 SOLVING FOR HEAD 
                                                   Max.-Head-Change                         Max.-Flux-Residual
  Residual-Control   Outer-Iter.   Inner-Iter.     Column Row Layer    Maximum-Head-Change  Column Row Layer    Maximum-Flux-Residual          L2-NORM 
          0                 1           2             4    6     1       0.1132055549E+00       4    6    1         0.6085715937E+01      0.8623297096E+01
          0                 2           2             4    6     1      -0.1100626580E-01       4    6    1        -0.6082678483E+00      0.8619444627E+00
          0                 3           2             4    6     1       0.7489323073E-03       4    6    1         0.4254720522E-01      0.6029731056E-01
          0                 4           1             4    6     1      -0.2976427723E-04       4    6    1        -0.1738048506E-02      0.2463529289E-02

    ------------------------------------------------
       NWT REQUIRED            4 OUTER ITERATIONS 
       AND A TOTAL OF          7 INNER ITERATIONS.
    ------------------------------------------------

 NO OUTPUT CONTROL FOR STRESS PERIOD   35   TIME STEP   14
 
 SOLVING FOR HEAD 
                                                   Max.-Head-Change                         Max.-Flux-Residual
  Residual-Control   Outer-Iter.   Inner-Iter.     Column Row Layer    Maximum-Head-Change  Column Row Layer    Maximum-Flux-Residual          L2-NORM 
          0                 1           2             4    6     1       0.1090270010E+00       4    6    1         0.5881914192E+01      0.7727576134E+01
          0                 2           2             4    6     1      -0.1060012852E-01       4    6    1        -0.5879057340E+00      0.7724288101E+00
          0                 3           2             4    6     1       0.7212973019E-03       4    6    1         0.4112295654E-01      0.5403653178E-01
          0                 4           1             4    6     1      -0.2866613434E-04       4    6    1        -0.1679875707E-02      0.2207832793E-02

    ------------------------------------------------
       NWT REQUIRED            4 OUTER ITERATIONS 
       AND A TOTAL OF          7 INNER ITERATIONS.
    ------------------------------------------------

 NO OUTPUT CONTROL FOR STRESS PERIOD   35   TIME STEP   15
 
 SOLVING FOR HEAD 
                                                   Max.-Head-Change                         Max.-Flux-Residual
  Residual-Control   Outer-Iter.   Inner-Iter.     Column Row Layer    Maximum-Head-Change  Column Row Layer    Maximum-Flux-Residual          L2-NORM 
          0                 1           2             4    6     1       0.1050888482E+00       4    6    1         0.5664803995E+01      0.7550086162E+01
          0                 2           2             4    7     1      -0.4174910445E-02       4    7    1        -0.2281802889E+00      0.4995535923E+00
          0                 3           2             4    7     1       0.2814004336E-03       4    7    1         0.1596069741E-01      0.3613029620E-01
          0                 4           1             4    6     1      -0.4520730483E-04       4    6    1        -0.2515355919E-02      0.2893500479E-02

    ------------------------------------------------
       NWT REQUIRED            4 OUTER ITERATIONS 
       AND A TOTAL OF          7 INNER ITERATIONS.
    ------------------------------------------------

 NO OUTPUT CONTROL FOR STRESS PERIOD   35   TIME STEP   16
 
 SOLVING FOR HEAD 
                                                   Max.-Head-Change                         Max.-Flux-Residual
  Residual-Control   Outer-Iter.   Inner-Iter.     Column Row Layer    Maximum-Head-Change  Column Row Layer    Maximum-Flux-Residual          L2-NORM 
          0                 1           2             4    6     1       0.1009238294E+00       4    6    1         0.5435260265E+01      0.7371282589E+01
          0                 2           2             4    6     1       0.2690976778E-01       4    6    1         0.1474363766E+01      0.1556121489E+01
          0                 3           2             4    6     1       0.7175094976E-02       4    6    1         0.3907825074E+00      0.3923849773E+00
          0                 4           2             4    6     1       0.1913138729E-02       4    6    1         0.1043376827E+00      0.1043449656E+00
          0                 5           2             4    6     1       0.5101118400E-03       4    6    1         0.2781443791E-01      0.2781494366E-01
          0                 6           2             4    6     1       0.1360142498E-03       4    6    1         0.7416570171E-02      0.7416654525E-02
          0                 7           1             4    6     1       0.3626631513E-04       4    6    1         0.1977516128E-02      0.1977540471E-02

    ------------------------------------------------
       NWT REQUIRED            7 OUTER ITERATIONS 
       AND A TOTAL OF         13 INNER ITERATIONS.
    ------------------------------------------------

 NO OUTPUT CONTROL FOR STRESS PERIOD   35   TIME STEP   17
 
 SOLVING FOR HEAD 
                                                   Max.-Head-Change                         Max.-Flux-Residual
  Residual-Control   Outer-Iter.   Inner-Iter.     Column Row Layer    Maximum-Head-Change  Column Row Layer    Maximum-Flux-Residual          L2-NORM 
          0                 1           2             4    7     1       0.4483287346E-01       4    7    1         0.2364079386E+01      0.5324641655E+01
          0                 2           2             4    7     1      -0.4358710323E-02       4    7    1        -0.2362835225E+00      0.5322739767E+00
          0                 3           2             4    7     1       0.2965887210E-03       4    7    1         0.1652739328E-01      0.3724058258E-01
          0                 4           1             4    7     1      -0.1178679539E-04       4    7    1        -0.6751257915E-03      0.1521875842E-02

    ------------------------------------------------
       NWT REQUIRED            4 OUTER ITERATIONS 
       AND A TOTAL OF          7 INNER ITERATIONS.
    ------------------------------------------------

 NO OUTPUT CONTROL FOR STRESS PERIOD   35   TIME STEP   18
 
 SOLVING FOR HEAD 
                                                   Max.-Head-Change                         Max.-Flux-Residual
  Residual-Control   Outer-Iter.   Inner-Iter.     Column Row Layer    Maximum-Head-Change  Column Row Layer    Maximum-Flux-Residual          L2-NORM 
          0                 1           2             4    7     1       0.4385587796E-01       4    7    1         0.2329408172E+01      0.4962034929E+01
          0                 2           2             4    7     1      -0.4263739851E-02       4    7    1        -0.2328190432E+00      0.4960369806E+00
          0                 3           2             4    7     1       0.2901279576E-03       4    7    1         0.1628515177E-01      0.3470629274E-01
          0                 4           1             4    7     1      -0.1153013544E-04       4    7    1        -0.6652365087E-03      0.1418381042E-02

    ------------------------------------------------
       NWT REQUIRED            4 OUTER ITERATIONS 
       AND A TOTAL OF          7 INNER ITERATIONS.
    ------------------------------------------------

 NO OUTPUT CONTROL FOR STRESS PERIOD   35   TIME STEP   19
 
 SOLVING FOR HEAD 
                                                   Max.-Head-Change                         Max.-Flux-Residual
  Residual-Control   Outer-Iter.   Inner-Iter.     Column Row Layer    Maximum-Head-Change  Column Row Layer    Maximum-Flux-Residual          L2-NORM 
          0                 1           2             4    7     1       0.4293035960E-01       4    7    1         0.2278642444E+01      0.4887503920E+01
          0                 2           2             4    7     1      -0.4173756850E-02       4    7    1        -0.2277449558E+00      0.4885853519E+00
          0                 3           2             4    7     1       0.2840049039E-03       4    7    1         0.1593022352E-01      0.3418481893E-01
          0                 4           1             4    7     1      -0.1128678701E-04       4    7    1        -0.6507373878E-03      0.1397063998E-02

    ------------------------------------------------
       NWT REQUIRED            4 OUTER ITERATIONS 
       AND A TOTAL OF          7 INNER ITERATIONS.
    ------------------------------------------------

 NO OUTPUT CONTROL FOR STRESS PERIOD   35   TIME STEP   20
 
 SOLVING FOR HEAD 
                                                   Max.-Head-Change                         Max.-Flux-Residual
  Residual-Control   Outer-Iter.   Inner-Iter.     Column Row Layer    Maximum-Head-Change  Column Row Layer    Maximum-Flux-Residual          L2-NORM 
          0                 1           2             4    7     1       0.4205259275E-01       4    7    1         0.2230553774E+01      0.4816435117E+01
          0                 2           2             4    7     1      -0.4088416529E-02       4    7    1        -0.2229384470E+00      0.4814798880E+00
          0                 3           2             4    7     1       0.2781977744E-03       4    7    1         0.1559401247E-01      0.3368758329E-01
          0                 4           1             4    7     1      -0.1105599428E-04       4    7    1        -0.6370028882E-03      0.1376733810E-02

    ------------------------------------------------
       NWT REQUIRED            4 OUTER ITERATIONS 
       AND A TOTAL OF          7 INNER ITERATIONS.
    ------------------------------------------------

 NO OUTPUT CONTROL FOR STRESS PERIOD   35   TIME STEP   21
 
 SOLVING FOR HEAD 
                                                   Max.-Head-Change                         Max.-Flux-Residual
  Residual-Control   Outer-Iter.   Inner-Iter.     Column Row Layer    Maximum-Head-Change  Column Row Layer    Maximum-Flux-Residual          L2-NORM 
          0                 1           2             4    7     1       0.4121927289E-01       4    7    1         0.2184955499E+01      0.4748527032E+01
          0                 2           2             4    7     1      -0.4007397605E-02       4    7    1        -0.2183808595E+00      0.4746904747E+00
          0                 3           2             4    7     1       0.2726847065E-03       4    7    1         0.1527521350E-01      0.3321245912E-01
          0                 4           1             4    7     1      -0.1083688941E-04       4    7    1        -0.6239797162E-03      0.1357307929E-02

    ------------------------------------------------
       NWT REQUIRED            4 OUTER ITERATIONS 
       AND A TOTAL OF          7 INNER ITERATIONS.
    ------------------------------------------------

 NO OUTPUT CONTROL FOR STRESS PERIOD   35   TIME STEP   22
 
 SOLVING FOR HEAD 
                                                   Max.-Head-Change                         Max.-Flux-Residual
  Residual-Control   Outer-Iter.   Inner-Iter.     Column Row Layer    Maximum-Head-Change  Column Row Layer    Maximum-Flux-Residual          L2-NORM 
          0                 1           2             4    7     1       0.4042697133E-01       4    7    1         0.2141654452E+01      0.4683496175E+01
          0                 2           2             4    7     1      -0.3930366722E-02       4    7    1        -0.2140528862E+00      0.4681887783E+00
          0                 3           2             4    7     1       0.2674430157E-03       4    7    1         0.1497247607E-01      0.3275749363E-01
          0                 4           1             4    7     1      -0.1062856970E-04       4    7    1        -0.6116126779E-03      0.1338710689E-02

    ------------------------------------------------
       NWT REQUIRED            4 OUTER ITERATIONS 
       AND A TOTAL OF          7 INNER ITERATIONS.
    ------------------------------------------------

 NO OUTPUT CONTROL FOR STRESS PERIOD   35   TIME STEP   23
 
 SOLVING FOR HEAD 
                                                   Max.-Head-Change                         Max.-Flux-Residual
  Residual-Control   Outer-Iter.   Inner-Iter.     Column Row Layer    Maximum-Head-Change  Column Row Layer    Maximum-Flux-Residual          L2-NORM 
          0                 1           2             4    7     1       0.3967279700E-01       4    7    1         0.2100487416E+01      0.4621101708E+01
          0                 2           2             4    7     1      -0.3857042796E-02       4    7    1        -0.2099382128E+00      0.4619506583E+00
          0                 3           2             4    7     1       0.2624535754E-03       4    7    1         0.1468465903E-01      0.3232094895E-01
          0                 4           1             4    7     1      -0.1043027542E-04       4    7    1        -0.5998551583E-03      0.1320869037E-02

    ------------------------------------------------
       NWT REQUIRED            4 OUTER ITERATIONS 
       AND A TOTAL OF          7 INNER ITERATIONS.
    ------------------------------------------------

 NO OUTPUT CONTROL FOR STRESS PERIOD   35   TIME STEP   24
 
 SOLVING FOR HEAD 
                                                   Max.-Head-Change                         Max.-Flux-Residual
  Residual-Control   Outer-Iter.   Inner-Iter.     Column Row Layer    Maximum-Head-Change  Column Row Layer    Maximum-Flux-Residual          L2-NORM 
          0                 1           2             4    7     1       0.3895409112E-01       4    7    1         0.2061304495E+01      0.4561116240E+01
          0                 2           2             4    7     1      -0.3787167322E-02       4    7    1        -0.2060218571E+00      0.4559534505E+00
          0                 3           2             4    7     1       0.2576987937E-03       4    7    1         0.1441071430E-01      0.3190127486E-01
          0                 4           1             4    7     1      -0.1024130705E-04       4    7    1        -0.5886643512E-03      0.1303714494E-02

    ------------------------------------------------
       NWT REQUIRED            4 OUTER ITERATIONS 
       AND A TOTAL OF          7 INNER ITERATIONS.
    ------------------------------------------------

 NO OUTPUT CONTROL FOR STRESS PERIOD   35   TIME STEP   25
 
 SOLVING FOR HEAD 
                                                   Max.-Head-Change                         Max.-Flux-Residual
  Residual-Control   Outer-Iter.   Inner-Iter.     Column Row Layer    Maximum-Head-Change  Column Row Layer    Maximum-Flux-Residual          L2-NORM 
          0                 1           2             4    7     1       0.3826828353E-01       4    7    1         0.2023960555E+01      0.4503352507E+01
          0                 2           2             4    7     1      -0.3720490417E-02       4    7    1        -0.2022893125E+00      0.4501784073E+00
          0                 3           2             4    7     1       0.2531616678E-03       4    7    1         0.1414962720E-01      0.3149716866E-01
          0                 4           1             4    7     1      -0.1006098994E-04       4    7    1        -0.5779988060E-03      0.1287187307E-02

    ------------------------------------------------
       NWT REQUIRED            4 OUTER ITERATIONS 
       AND A TOTAL OF          7 INNER ITERATIONS.
    ------------------------------------------------

 NO OUTPUT CONTROL FOR STRESS PERIOD   35   TIME STEP   26
 
 SOLVING FOR HEAD 
                                                   Max.-Head-Change                         Max.-Flux-Residual
  Residual-Control   Outer-Iter.   Inner-Iter.     Column Row Layer    Maximum-Head-Change  Column Row Layer    Maximum-Flux-Residual          L2-NORM 
          0                 1           2             4    7     1       0.3761313487E-01       4    7    1         0.1988329619E+01      0.4447623910E+01
          0                 2           2             4    7     1      -0.3656794354E-02       4    7    1        -0.1987279872E+00      0.4446068073E+00
          0                 3           2             4    7     1       0.2488273811E-03       4    7    1         0.1390051688E-01      0.3110727219E-01
          0                 4           1             4    7     1      -0.9888734301E-05       4    7    1        -0.5678225471E-03      0.1271250808E-02

    ------------------------------------------------
       NWT REQUIRED            4 OUTER ITERATIONS 
       AND A TOTAL OF          7 INNER ITERATIONS.
    ------------------------------------------------

 NO OUTPUT CONTROL FOR STRESS PERIOD   35   TIME STEP   27
 
 SOLVING FOR HEAD 
                                                   Max.-Head-Change                         Max.-Flux-Residual
  Residual-Control   Outer-Iter.   Inner-Iter.     Column Row Layer    Maximum-Head-Change  Column Row Layer    Maximum-Flux-Residual          L2-NORM 
          0                 1           2             4    7     1       0.3698645949E-01       4    7    1         0.1954288299E+01      0.4393781421E+01
          0                 2           2             4    7     1      -0.3595866632E-02       4    7    1        -0.1953255484E+00      0.4392238909E+00
          0                 3           2             4    7     1       0.2446814732E-03       4    7    1         0.1366252067E-01      0.3073059677E-01
          0                 4           1             4    7     1      -0.9723965061E-05       4    7    1        -0.5581002961E-03      0.1255855929E-02

    ------------------------------------------------
       NWT REQUIRED            4 OUTER ITERATIONS 
       AND A TOTAL OF          7 INNER ITERATIONS.
    ------------------------------------------------

 NO OUTPUT CONTROL FOR STRESS PERIOD   35   TIME STEP   28
 
 SOLVING FOR HEAD 
                                                   Max.-Head-Change                         Max.-Flux-Residual
  Residual-Control   Outer-Iter.   Inner-Iter.     Column Row Layer    Maximum-Head-Change  Column Row Layer    Maximum-Flux-Residual          L2-NORM 
          0                 1           2             4    7     1       0.3638637494E-01       4    7    1         0.1921730553E+01      0.4341682775E+01
          0                 2           2             4    7     1      -0.3537524229E-02       4    7    1        -0.1920713967E+00      0.4340153199E+00
          0                 3           2             4    7     1       0.2407114900E-03       4    7    1         0.1343489713E-01      0.3036612254E-01
          0                 4           1             4    7     1      -0.9566188096E-05       4    7    1        -0.5488018060E-03      0.1240955912E-02

    ------------------------------------------------
       NWT REQUIRED            4 OUTER ITERATIONS 
       AND A TOTAL OF          7 INNER ITERATIONS.
    ------------------------------------------------

 NO OUTPUT CONTROL FOR STRESS PERIOD   35   TIME STEP   29
 
 SOLVING FOR HEAD 
                                                   Max.-Head-Change                         Max.-Flux-Residual
  Residual-Control   Outer-Iter.   Inner-Iter.     Column Row Layer    Maximum-Head-Change  Column Row Layer    Maximum-Flux-Residual          L2-NORM 
          0                 1           2             4    7     1       0.3581101704E-01       4    7    1         0.1890551499E+01      0.4291192833E+01
          0                 2           2             4    7     1      -0.3481585896E-02       4    7    1        -0.1889550489E+00      0.4289675955E+00
          0                 3           2             4    7     1       0.2369050977E-03       4    7    1         0.1321691299E-01      0.3001291271E-01
          0                 4           1             4    7     1      -0.9414912501E-05       4    7    1        -0.5398970711E-03      0.1226526166E-02

    ------------------------------------------------
       NWT REQUIRED            4 OUTER ITERATIONS 
       AND A TOTAL OF          7 INNER ITERATIONS.
    ------------------------------------------------

 NO OUTPUT CONTROL FOR STRESS PERIOD   35   TIME STEP   30



 STREAM LISTING     PERIOD     35   STEP       30

 LAYER ROW COL. STREAM  RCH.  FLOW INTO     FLOW TO   FLOW OUT OF   OVRLND.     DIRECT     STREAM       STREAM     STREAM     STREAM   STREAMBED  STREAMBED
                SEG.NO.  NO.  STRM. RCH.    AQUIFER    STRM. RCH.    RUNOFF     PRECIP       ET          HEAD       DEPTH      WIDTH   CONDCTNC.   GRADIENT

   1    1    1     1     1    1.9000E+01  2.1427E-01   1.8786E+01  0.000E+00  0.000E+00  0.000E+00  1.09413E+03  1.082E+00  1.166E+01  5.249E-02  1.361E+00
   1    2    2     1     2    1.8786E+01  3.3054E-01   1.8455E+01  0.000E+00  0.000E+00  0.000E+00  1.08914E+03  1.077E+00  1.158E+01  8.107E-02  1.359E+00
   1    3    3     1     3    1.8455E+01  2.8064E-01   1.8175E+01  0.000E+00  0.000E+00  0.000E+00  1.08349E+03  1.072E+00  1.149E+01  6.892E-02  1.357E+00
   1    3    4     1     4    1.8175E+01  2.5740E-01   1.7917E+01  0.000E+00  0.000E+00  0.000E+00  1.07848E+03  1.068E+00  1.140E+01  6.328E-02  1.356E+00
   1    4    5     2     1    1.5917E+01  3.0542E-01   1.5612E+01  0.000E+00  0.000E+00  0.000E+00  1.07285E+03  9.157E-01  1.200E+01  7.800E-02  1.305E+00
   1    5    6     2     2    1.5612E+01  2.3438E-01   1.5377E+01  0.000E+00  0.000E+00  0.000E+00  1.06742E+03  9.063E-01  1.200E+01  6.000E-02  1.302E+00
   1    6    6     2     3    1.5377E+01  2.3388E-01   1.5143E+01  0.000E+00  0.000E+00  0.000E+00  1.06269E+03  8.980E-01  1.200E+01  6.000E-02  1.299E+00
   1    7    6     2     4    1.5143E+01  2.3338E-01   1.4910E+01  0.000E+00  0.000E+00  0.000E+00  1.05797E+03  8.897E-01  1.200E+01  6.000E-02  1.297E+00
   1    8    6     2     5    1.4910E+01  2.3289E-01   1.4677E+01  0.000E+00  0.000E+00  0.000E+00  1.05324E+03  8.814E-01  1.200E+01  6.000E-02  1.294E+00
   1    3    5     3     1    2.0000E+00  2.8252E-01   1.7175E+00  0.000E+00  0.000E+00  0.000E+00  1.07555E+03  1.909E+00  9.636E+00  7.227E-02  1.955E+00
   1    3    6     3     2    1.7175E+00  2.4905E-01   1.4684E+00  0.000E+00  0.000E+00  0.000E+00  1.07264E+03  1.727E+00  8.909E+00  6.682E-02  1.864E+00
   1    3    7     3     3    1.4684E+00  1.9718E-01   1.2712E+00  0.000E+00  0.000E+00  0.000E+00  1.06987E+03  1.555E+00  8.218E+00  5.547E-02  1.777E+00
   1    4    8     3     4    1.2712E+00  2.2567E-01   1.0456E+00  0.000E+00  0.000E+00  0.000E+00  1.06682E+03  1.364E+00  7.455E+00  6.709E-02  1.682E+00
   1    5    8     3     5    1.0456E+00  1.5790E-01   8.8768E-01  0.000E+00  0.000E+00  0.000E+00  1.06362E+03  1.164E+00  6.655E+00  4.991E-02  1.582E+00
   1    6    8     3     6    8.8768E-01  5.5980E-02   8.3170E-01  0.000E+00  0.000E+00  0.000E+00  1.06158E+03  1.036E+00  6.145E+00  1.844E-02  1.518E+00
   1    5   10     4     1    1.0000E+01  9.0919E-02   9.9091E+00  0.000E+00  0.000E+00  0.000E+00  1.07836E+03  6.368E-01  1.000E+01  2.500E-02  1.212E+00
   1    5    9     4     2    9.9091E+00  1.8158E-01   9.7275E+00  0.000E+00  0.000E+00  0.000E+00  1.07154E+03  6.315E-01  1.000E+01  5.000E-02  1.211E+00
   1    6    8     4     3    9.7275E+00  1.2689E-01   9.6006E+00  0.000E+00  0.000E+00  0.000E+00  1.06381E+03  6.256E-01  1.000E+01  3.500E-02  1.209E+00
   1    6    8     5     1    1.0432E+01  2.2686E-01   1.0205E+01  0.000E+00  0.000E+00  0.000E+00  1.05868E+03  6.790E-01  1.542E+01  6.166E-02  1.226E+00
   1    7    7     5     2    1.0205E+01  2.7894E-01   9.9265E+00  0.000E+00  0.000E+00  0.000E+00  1.05417E+03  6.732E-01  1.519E+01  7.594E-02  1.224E+00
   1    8    7     5     3    9.9265E+00  1.9221E-01   9.7343E+00  0.000E+00  0.000E+00  0.000E+00  1.04992E+03  6.676E-01  1.497E+01  5.241E-02  1.223E+00
   1    8    6     5     4    9.7343E+00  1.3577E-01   9.5985E+00  0.000E+00  0.000E+00  0.000E+00  1.04691E+03  6.637E-01  1.482E+01  3.706E-02  1.221E+00
   1    9    6     6     1    2.4276E+01  2.5176E-01   2.4024E+01  0.000E+00  0.000E+00  0.000E+00  1.04392E+03  1.196E+00  1.200E+01  6.000E-02  1.399E+00
   1   10    7     6     2    2.4024E+01  2.5131E-01   2.3773E+01  0.000E+00  0.000E+00  0.000E+00  1.03937E+03  1.188E+00  1.200E+01  6.000E-02  1.396E+00
   1   11    7     6     3    2.3773E+01  2.5086E-01   2.3522E+01  0.000E+00  0.000E+00  0.000E+00  1.03482E+03  1.181E+00  1.200E+01  6.000E-02  1.394E+00
   1   12    7     6     4    2.3522E+01  2.5041E-01   2.3271E+01  0.000E+00  0.000E+00  0.000E+00  1.03026E+03  1.173E+00  1.200E+01  6.000E-02  1.391E+00
   1   13    7     6     5    2.3271E+01  7.6779E-03   2.3264E+01  0.000E+00  0.000E+00  0.000E+00  1.02708E+03  1.170E+00  1.200E+01  2.400E-02  1.066E-01
   1   14    9     7     1    1.5000E+02  1.3564E+00   1.4864E+02  0.000E+00  0.000E+00  0.000E+00  1.03987E+03  2.288E+00  5.529E+01  5.593E-01  8.084E-01
   1   13    8     7     2    1.4864E+02  1.9260E+00   1.4672E+02  0.000E+00  0.000E+00  0.000E+00  1.03478E+03  2.279E+00  5.526E+01  6.148E-01  1.044E+00
   1   13    7     7     3    1.4672E+02  1.6361E+00   1.4508E+02  0.000E+00  0.000E+00  0.000E+00  1.02969E+03  2.269E+00  5.521E+01  5.584E-01  9.767E-01
   1   13    6     8     1    1.6835E+02  1.0766E+00   1.6727E+02  0.000E+00  0.000E+00  0.000E+00  1.02481E+03  2.938E+00  4.260E+01  4.341E-01  8.267E-01
   1   13    5     8     2    1.6727E+02  3.2296E-01   1.6695E+02  0.000E+00  0.000E+00  0.000E+00  1.01856E+03  2.933E+00  4.253E+01  4.334E-01  2.484E-01
   1   13    4     8     3    1.6695E+02 -1.9328E+00   1.6888E+02  0.000E+00  0.000E+00  0.000E+00  1.01231E+03  2.939E+00  4.261E+01  4.342E+00 -1.484E-01
   1   13    3     8     4    1.6888E+02 -3.4114E+00   1.7229E+02  0.000E+00  0.000E+00  0.000E+00  1.00608E+03  2.956E+00  4.286E+01  4.368E+00 -2.603E-01
   1   13    2     8     5    1.7229E+02 -2.5197E+00   1.7481E+02  0.000E+00  0.000E+00  0.000E+00  9.99850E+02  2.975E+00  4.314E+01  4.396E+00 -1.911E-01
   1   13    1     8     6    1.7481E+02 -1.9678E+00   1.7678E+02  0.000E+00  0.000E+00  0.000E+00  9.94865E+02  2.990E+00  4.335E+01  2.650E+00 -2.475E-01





UNSATURATED ZONE PACKAGE VOLUMETRIC BUDGET FOR  TIME STEP    30 STRESS PERIOD   35
  ------------------------------------------------------------------------------



     CUMULATIVE VOLUMES      L**3       RATES FOR THIS TIME STEP      L**3/T
     ------------------                 ------------------------

           IN:                                      IN:
           ---                                      ---
        INFILTRATION =  1503377922.0282          INFILTRATION =           0.8475

          OUT:                                     OUT:
          ----                                     ----
              UZF ET =  1287249771.8161                UZF ET =           0.8475
        UZF RECHARGE =   216050902.0696          UZF RECHARGE =           0.0004

            IN - OUT =       77248.1425              IN - OUT =      -4.0617E-04

          STORAGE:                                 STORAGE:
          --------                                 --------
      STORAGE CHANGE =       77226.8611        STORAGE CHANGE =      -4.0617E-04

 PERCENT DISCREPANCY IS DIFFERENCE BETWEEN IN-OUT MINUS CHANGE IN STORAGE
 DIVIDED BY THE AVERAGE OF IN AND OUT TIMES 100

 PERCENT DISCREPANCY =           0.00     PERCENT DISCREPANCY =           0.00






1
  VOLUMETRIC BUDGET FOR AGRICULTURAL FIELDS AT  END OF TIME STEP   30, STRESS PERIOD  35
  ------------------------------------------------------------------------------

     CUMULATIVE VOLUMES      L**3       RATES FOR THIS TIME STEP      L**3/T
     ------------------                 ------------------------

           IN:                                      IN:
           ---                                      ---
               AG WELLS  =  1427519104.0000                 AG WELLS  =           0.0000
      DIVERSION SEGMENTS =           0.0000        DIVERSION SEGMENTS =           0.0000
           GW IRRIGATION =           0.0000             GW IRRIGATION =           0.0000
           SW IRRIGATION =           0.0000             SW IRRIGATION =           0.0000
        SYSTEM LOSSES GW =           0.0000          SYSTEM LOSSES GW =           0.0000
        SYSTEM LOSSES SW =           0.0000          SYSTEM LOSSES SW =           0.0000

                TOTAL IN =  1427519104.0000                  TOTAL IN =           0.0000

          OUT:                                     OUT:
          ----                                     ----
               AG WELLS  =           0.0000                 AG WELLS  =           0.0000
      DIVERSION SEGMENTS =           0.0000        DIVERSION SEGMENTS =           0.0000
           GW IRRIGATION =  1427519104.0000             GW IRRIGATION =           0.0000
           SW IRRIGATION =           0.0000             SW IRRIGATION =           0.0000
        SYSTEM LOSSES GW =           0.0000          SYSTEM LOSSES GW =           0.0000
        SYSTEM LOSSES SW =           0.0000          SYSTEM LOSSES SW =           0.0000

               TOTAL OUT =  1427519104.0000                 TOTAL OUT =           0.0000

                IN - OUT =           0.0000                  IN - OUT =           0.0000

     PERCENT DISCREPANCY =           0.00         PERCENT DISCREPANCY =           0.00



1
  VOLUMETRIC BUDGET FOR ENTIRE MODEL AT END OF TIME STEP   30, STRESS PERIOD  35
  ------------------------------------------------------------------------------

     CUMULATIVE VOLUMES      L**3       RATES FOR THIS TIME STEP      L**3/T
     ------------------                 ------------------------

           IN:                                      IN:
           ---                                      ---
             STORAGE     =  1793541504.0000               STORAGE     =          11.4886
       CONSTANT HEAD     =           0.0000         CONSTANT HEAD     =           0.0000
     HEAD DEP BOUNDS     =    25579232.0000       HEAD DEP BOUNDS     =           0.2872
      STREAM LEAKAGE     =  1098162688.0000        STREAM LEAKAGE     =          12.0543
        UZF RECHARGE     =   216050848.0000          UZF RECHARGE     =       4.0617E-04
               GW ET     =           0.0000                 GW ET     =           0.0000
     SURFACE LEAKAGE     =           0.0000       SURFACE LEAKAGE     =           0.0000
           AG WELLS      =           0.0000             AG WELLS      =           0.0000

                TOTAL IN =  3133334272.0000                  TOTAL IN =          23.8305

          OUT:                                     OUT:
          ----                                     ----
             STORAGE     =   743412864.0000               STORAGE     =          13.7097
       CONSTANT HEAD     =           0.0000         CONSTANT HEAD     =           0.0000
     HEAD DEP BOUNDS     =    26192200.0000       HEAD DEP BOUNDS     =           0.2891
      STREAM LEAKAGE     =   918667584.0000        STREAM LEAKAGE     =           9.8317
        UZF RECHARGE     =           0.0000          UZF RECHARGE     =           0.0000
               GW ET     =    17516984.0000                 GW ET     =           0.0000
     SURFACE LEAKAGE     =           0.0000       SURFACE LEAKAGE     =           0.0000
           AG WELLS      =  1427519104.0000             AG WELLS      =           0.0000

               TOTAL OUT =  3133308672.0000                 TOTAL OUT =          23.8305

                IN - OUT =       25600.0000                  IN - OUT =       1.3351E-05

     PERCENT DISCREPANCY =           0.00         PERCENT DISCREPANCY =           0.00






         TIME SUMMARY AT END OF TIME STEP   30 IN STRESS PERIOD   35
                    SECONDS     MINUTES      HOURS       DAYS        YEARS
                    -----------------------------------------------------------
   TIME STEP LENGTH  87667.      1461.1      24.352      1.0147     2.77799E-03
 STRESS PERIOD TIME 2.63000E+06  43833.      730.56      30.440     8.33397E-02
         TOTAL TIME 8.95061E+07 1.49177E+06  24863.      1036.0      2.8363    
1
1
                            STRESS PERIOD NO.   36, LENGTH =   2630000.    
                            -----------------------------------------------

                              NUMBER OF TIME STEPS =    30

                               MULTIPLIER FOR DELT =     1.000

                            INITIAL TIME STEP SIZE =   87666.66    

 REUSING NON-PARAMETER GHB CELLS FROM LAST STRESS PERIOD

      2 GHB CELLS

 REUSING STREAM SEGMENT DATA FROM LAST STRESS PERIOD



            AREAL INFILTRATION RATE
 READING ON UNIT   19 WITH FORMAT: (FREE)              

            1           2           3           4           5           6           7           8           9          10
 ........................................................................................................................
   1   1.0000E-10  2.0000E-10   0.000       0.000       0.000       0.000       0.000       0.000       0.000       0.000    
   2   2.0000E-10  1.0000E-10  2.0000E-10   0.000       0.000      8.0000E-10  8.0000E-10  5.0000E-10   0.000       0.000    
   3    0.000      5.0000E-10  1.0000E-10  1.0000E-10  8.0000E-10  8.0000E-10  5.0000E-10  5.0000E-10   0.000       0.000    
   4   8.0000E-10  5.0000E-10  1.0000E-10  1.0000E-10  1.0000E-10  1.0000E-10  1.0000E-10  1.0000E-10  2.0000E-10   0.000    
   5   8.0000E-10  5.0000E-10  1.0000E-10  1.0000E-10  1.0000E-10  1.0000E-10  1.0000E-10  1.0000E-10  1.0000E-10  1.0000E-10
   6   8.0000E-10  5.0000E-10  5.0000E-10  2.0000E-10  2.0000E-10  1.0000E-10  1.0000E-10  1.0000E-10  1.0000E-10  5.0000E-10
   7   8.0000E-10  5.0000E-10  5.0000E-10  2.0000E-10  2.0000E-10  1.0000E-10  1.0000E-10  2.0000E-10  2.0000E-10   0.000    
   8    0.000      5.0000E-10  5.0000E-10  2.0000E-10  2.0000E-10  1.0000E-10  1.0000E-10  2.0000E-10  5.0000E-10   0.000    
   9    0.000      5.0000E-10  5.0000E-10  2.0000E-10  2.0000E-10  1.0000E-10  1.0000E-10  2.0000E-10  5.0000E-10   0.000    
  10    0.000      5.0000E-10  5.0000E-10  2.0000E-10  2.0000E-10  1.0000E-10  1.0000E-10  2.0000E-10  5.0000E-10  8.0000E-10
  11    0.000      1.0000E-10  1.0000E-10  1.0000E-10  1.0000E-10  1.0000E-10  1.0000E-10  2.0000E-10  5.0000E-10   0.000    
  12   1.0000E-10  1.0000E-10  1.0000E-10  1.0000E-10  1.0000E-10  1.0000E-10  1.0000E-10  1.0000E-10  2.0000E-10   0.000    
  13   1.0000E-10  1.0000E-10  2.0000E-10  2.0000E-10  2.0000E-10  2.0000E-10  2.0000E-10  1.0000E-10  1.0000E-10   0.000    
  14    0.000      2.0000E-10  5.0000E-10  5.0000E-10  5.0000E-10  5.0000E-10  5.0000E-10  2.0000E-10  1.0000E-10   0.000    
  15    0.000       0.000      8.0000E-10  8.0000E-10  8.0000E-10  8.0000E-10   0.000       0.000       0.000       0.000    

                  ET RATE =  5.000000E-10

 USING ET EXTINCTION DEPTH FROM PREVIOUS STRESS PERIOD. CURRENT PERIOD IS:      36

 USING EXTINCTION WATER CONTENT FROM PREVIOUS STRESS PERIOD. CURRENT PERIOD IS:      36

 USING AIR ENTRY PRESSURE FROM PREVIOUS STRESS PERIOD. CURRENT PERIOD IS:      36

 USING ROOT PRESSURE HEAD FROM PREVIOUS STRESS PERIOD. CURRENT PERIOD IS:      36

 USING ROOT ACTIVITY FROM PREVIOUS STRESS PERIOD. CURRENT PERIOD IS:      36

 PROCESSING AG STRESS PERIOD DATA

 READING AG STRESS PERIOD DATA

 READING IRRIGATION WELL

 END PROCESSING AG STRESS PERIOD DATA OPTIONS
 
 SOLVING FOR HEAD 
                                                   Max.-Head-Change                         Max.-Flux-Residual
  Residual-Control   Outer-Iter.   Inner-Iter.     Column Row Layer    Maximum-Head-Change  Column Row Layer    Maximum-Flux-Residual          L2-NORM 
          0                 1           2             4    7     1       0.3525880490E-01       4    7    1         0.1860661764E+01      0.4242213261E+01
          0                 2           2             4    7     1      -0.3427897930E-02       4    7    1        -0.1859675719E+00      0.4240708171E+00
          0                 3           2             4    7     1       0.2332518375E-03       4    7    1         0.1300794333E-01      0.2967025648E-01
          0                 4           1             4    7     1      -0.9269723357E-05       4    7    1        -0.5313606175E-03      0.1212508605E-02

    ------------------------------------------------
       NWT REQUIRED            4 OUTER ITERATIONS 
       AND A TOTAL OF          7 INNER ITERATIONS.
    ------------------------------------------------

 NO OUTPUT CONTROL FOR STRESS PERIOD   36   TIME STEP    1
 
 SOLVING FOR HEAD 
                                                   Max.-Head-Change                         Max.-Flux-Residual
  Residual-Control   Outer-Iter.   Inner-Iter.     Column Row Layer    Maximum-Head-Change  Column Row Layer    Maximum-Flux-Residual          L2-NORM 
          0                 1           2             4    7     1       0.3472801444E-01       4    7    1         0.1831964816E+01      0.4194625864E+01
          0                 2           2             4    7     1      -0.3376292704E-02       4    7    1        -0.1830993171E+00      0.4193134371E+00
          0                 3           2             4    7     1       0.2297403024E-03       4    7    1         0.1280731325E-01      0.2933737273E-01
          0                 4           1             4    7     1      -0.9130167062E-05       4    7    1        -0.5231648529E-03      0.1198918869E-02

    ------------------------------------------------
       NWT REQUIRED            4 OUTER ITERATIONS 
       AND A TOTAL OF          7 INNER ITERATIONS.
    ------------------------------------------------

 NO OUTPUT CONTROL FOR STRESS PERIOD   36   TIME STEP    2
 
 SOLVING FOR HEAD 
                                                   Max.-Head-Change                         Max.-Flux-Residual
  Residual-Control   Outer-Iter.   Inner-Iter.     Column Row Layer    Maximum-Head-Change  Column Row Layer    Maximum-Flux-Residual          L2-NORM 
          0                 1           2             4    7     1       0.3421732291E-01       4    7    1         0.1804385829E+01      0.4148345070E+01
          0                 2           2             4    7     1      -0.3326641613E-02       4    7    1        -0.1803428054E+00      0.4146866227E+00
          0                 3           2             4    7     1       0.2263617412E-03       4    7    1         0.1261449957E-01      0.2901362095E-01
          0                 4           1             4    7     1      -0.8995895238E-05       4    7    1        -0.5152883946E-03      0.1185678703E-02

    ------------------------------------------------
       NWT REQUIRED            4 OUTER ITERATIONS 
       AND A TOTAL OF          7 INNER ITERATIONS.
    ------------------------------------------------

 NO OUTPUT CONTROL FOR STRESS PERIOD   36   TIME STEP    3
 
 SOLVING FOR HEAD 
                                                   Max.-Head-Change                         Max.-Flux-Residual
  Residual-Control   Outer-Iter.   Inner-Iter.     Column Row Layer    Maximum-Head-Change  Column Row Layer    Maximum-Flux-Residual          L2-NORM 
          0                 1           2             4    7     1       0.3372550915E-01       4    7    1         0.1777856222E+01      0.4103285897E+01
          0                 2           2             4    7     1      -0.3278825926E-02       4    7    1        -0.1776911819E+00      0.4101819630E+00
          0                 3           2             4    7     1       0.2231080741E-03       4    7    1         0.1242902279E-01      0.2869842081E-01
          0                 4           1             4    7     1      -0.8866586911E-05       4    7    1        -0.5077116443E-03      0.1172790184E-02

    ------------------------------------------------
       NWT REQUIRED            4 OUTER ITERATIONS 
       AND A TOTAL OF          7 INNER ITERATIONS.
    ------------------------------------------------

 NO OUTPUT CONTROL FOR STRESS PERIOD   36   TIME STEP    4
 
 SOLVING FOR HEAD 
                                                   Max.-Head-Change                         Max.-Flux-Residual
  Residual-Control   Outer-Iter.   Inner-Iter.     Column Row Layer    Maximum-Head-Change  Column Row Layer    Maximum-Flux-Residual          L2-NORM 
          0                 1           2             4    7     1       0.3325118971E-01       4    7    1         0.1752298113E+01      0.4059374947E+01
          0                 2           2             4    7     1      -0.3232711138E-02       4    7    1        -0.1751366619E+00      0.4057921110E+00
          0                 3           2             4    7     1       0.2199701491E-03       4    7    1         0.1225033839E-01      0.2839124569E-01
          0                 4           1             4    7     1      -0.8741879313E-05       4    7    1        -0.5004124037E-03      0.1160234813E-02

    ------------------------------------------------
       NWT REQUIRED            4 OUTER ITERATIONS 
       AND A TOTAL OF          7 INNER ITERATIONS.
    ------------------------------------------------

 NO OUTPUT CONTROL FOR STRESS PERIOD   36   TIME STEP    5
 
 SOLVING FOR HEAD 
                                                   Max.-Head-Change                         Max.-Flux-Residual
  Residual-Control   Outer-Iter.   Inner-Iter.     Column Row Layer    Maximum-Head-Change  Column Row Layer    Maximum-Flux-Residual          L2-NORM 
          0                 1           2             4    7     1       0.3279334499E-01       4    7    1         0.1727654339E+01      0.4016544685E+01
          0                 2           2             4    7     1      -0.3188198115E-02       4    7    1        -0.1726735319E+00      0.4015103287E+00
          0                 3           2             4    7     1       0.2169412197E-03       4    7    1         0.1207804670E-01      0.2809164202E-01
          0                 4           1             4    7     1      -0.8621503390E-05       4    7    1        -0.4933743030E-03      0.1147995139E-02

    ------------------------------------------------
       NWT REQUIRED            4 OUTER ITERATIONS 
       AND A TOTAL OF          7 INNER ITERATIONS.
    ------------------------------------------------

 NO OUTPUT CONTROL FOR STRESS PERIOD   36   TIME STEP    6
 
 SOLVING FOR HEAD 
                                                   Max.-Head-Change                         Max.-Flux-Residual
  Residual-Control   Outer-Iter.   Inner-Iter.     Column Row Layer    Maximum-Head-Change  Column Row Layer    Maximum-Flux-Residual          L2-NORM 
          0                 1           2             4    7     1       0.3235104276E-01       4    7    1         0.1703872038E+01      0.3974730409E+01
          0                 2           2             4    7     1      -0.3145196219E-02       4    7    1        -0.1702965081E+00      0.3973301001E+00
          0                 3           2             4    7     1       0.2140151178E-03       4    7    1         0.1191177806E-01      0.2779915192E-01
          0                 4           1             4    7     1      -0.8505213922E-05       4    7    1        -0.4865822507E-03      0.1136042326E-02

    ------------------------------------------------
       NWT REQUIRED            4 OUTER ITERATIONS 
       AND A TOTAL OF          7 INNER ITERATIONS.
    ------------------------------------------------

 NO OUTPUT CONTROL FOR STRESS PERIOD   36   TIME STEP    7
 
 SOLVING FOR HEAD 
                                                   Max.-Head-Change                         Max.-Flux-Residual
  Residual-Control   Outer-Iter.   Inner-Iter.     Column Row Layer    Maximum-Head-Change  Column Row Layer    Maximum-Flux-Residual          L2-NORM 
          0                 1           2             4    7     1       0.3192315458E-01       4    7    1         0.1680888302E+01      0.3933883790E+01
          0                 2           2             4    7     1      -0.3103595737E-02       4    7    1        -0.1679993028E+00      0.3932467091E+00
          0                 3           2             4    7     1       0.2111843788E-03       4    7    1         0.1175109274E-01      0.2751342559E-01
          0                 4           1             4    7     1      -0.8392714685E-05       4    7    1        -0.4800182792E-03      0.1124348411E-02

    ------------------------------------------------
       NWT REQUIRED            4 OUTER ITERATIONS 
       AND A TOTAL OF          7 INNER ITERATIONS.
    ------------------------------------------------

 NO OUTPUT CONTROL FOR STRESS PERIOD   36   TIME STEP    8
 
 SOLVING FOR HEAD 
                                                   Max.-Head-Change                         Max.-Flux-Residual
  Residual-Control   Outer-Iter.   Inner-Iter.     Column Row Layer    Maximum-Head-Change  Column Row Layer    Maximum-Flux-Residual          L2-NORM 
          0                 1           2             4    7     1       0.3150877374E-01       4    7    1         0.1658651911E+01      0.3893941113E+01
          0                 2           2             4    7     1      -0.3063308511E-02       4    7    1        -0.1657767962E+00      0.3892536893E+00
          0                 3           2             4    7     1       0.2084430028E-03       4    7    1         0.1159563254E-01      0.2723405370E-01
          0                 4           1             4    7     1      -0.8283766789E-05       4    7    1        -0.4736677524E-03      0.1112941726E-02

    ------------------------------------------------
       NWT REQUIRED            4 OUTER ITERATIONS 
       AND A TOTAL OF          7 INNER ITERATIONS.
    ------------------------------------------------

 NO OUTPUT CONTROL FOR STRESS PERIOD   36   TIME STEP    9
 
 SOLVING FOR HEAD 
                                                   Max.-Head-Change                         Max.-Flux-Residual
  Residual-Control   Outer-Iter.   Inner-Iter.     Column Row Layer    Maximum-Head-Change  Column Row Layer    Maximum-Flux-Residual          L2-NORM 
          0                 1           2             4    7     1       0.3110732402E-01       4    7    1         0.1637130427E+01      0.3854867627E+01
          0                 2           2             4    7     1      -0.3024278518E-02       4    7    1        -0.1636257459E+00      0.3853475632E+00
          0                 3           2             4    7     1       0.2057871782E-03       4    7    1         0.1144517070E-01      0.2696073954E-01
          0                 4           1             4    7     1      -0.8178219301E-05       4    7    1        -0.4675214200E-03      0.1101770164E-02

    ------------------------------------------------
       NWT REQUIRED            4 OUTER ITERATIONS 
       AND A TOTAL OF          7 INNER ITERATIONS.
    ------------------------------------------------

 NO OUTPUT CONTROL FOR STRESS PERIOD   36   TIME STEP   10
 
 SOLVING FOR HEAD 
                                                   Max.-Head-Change                         Max.-Flux-Residual
  Residual-Control   Outer-Iter.   Inner-Iter.     Column Row Layer    Maximum-Head-Change  Column Row Layer    Maximum-Flux-Residual          L2-NORM 
          0                 1           2             4    7     1       0.3071774732E-01       4    7    1         0.1616264823E+01      0.3816613753E+01
          0                 2           2             4    7     1      -0.2986402884E-02       4    7    1        -0.1615402524E+00      0.3815233818E+00
          0                 3           2             4    7     1       0.2032099042E-03       4    7    1         0.1129929450E-01      0.2669316365E-01
          0                 4           1             4    7     1      -0.8075793614E-05       4    7    1        -0.4615624275E-03      0.1090838932E-02

    ------------------------------------------------
       NWT REQUIRED            4 OUTER ITERATIONS 
       AND A TOTAL OF          7 INNER ITERATIONS.
    ------------------------------------------------

 NO OUTPUT CONTROL FOR STRESS PERIOD   36   TIME STEP   11
 
 SOLVING FOR HEAD 
                                                   Max.-Head-Change                         Max.-Flux-Residual
  Residual-Control   Outer-Iter.   Inner-Iter.     Column Row Layer    Maximum-Head-Change  Column Row Layer    Maximum-Flux-Residual          L2-NORM 
          0                 1           2             4    7     1       0.3033945921E-01       4    7    1         0.1596022104E+01      0.3779142381E+01
          0                 2           2             4    7     1      -0.2949624771E-02       4    7    1        -0.1595170172E+00      0.3777626835E+00
          0                 3           2             4    7     1       0.2007073131E-03       4    7    1         0.1115777324E-01      0.2643004120E-01
          0                 4           1             4    7     1      -0.7976335916E-05       4    7    1        -0.4557813281E-03      0.1080084995E-02

    ------------------------------------------------
       NWT REQUIRED            4 OUTER ITERATIONS 
       AND A TOTAL OF          7 INNER ITERATIONS.
    ------------------------------------------------

 NO OUTPUT CONTROL FOR STRESS PERIOD   36   TIME STEP   12
 
 SOLVING FOR HEAD 
                                                   Max.-Head-Change                         Max.-Flux-Residual
  Residual-Control   Outer-Iter.   Inner-Iter.     Column Row Layer    Maximum-Head-Change  Column Row Layer    Maximum-Flux-Residual          L2-NORM 
          0                 1           2             4    7     1       0.2997192089E-01       4    7    1         0.1576371967E+01      0.3742432813E+01
          0                 2           2             4    7     1      -0.2913891267E-02       4    7    1        -0.1575530118E+00      0.3740657442E+00
          0                 3           2             4    7     1       0.1982758050E-03       4    7    1         0.1102039507E-01      0.2617136353E-01
          0                 4           1             4    7     1      -0.7879703680E-05       4    7    1        -0.4501694934E-03      0.1069506609E-02

    ------------------------------------------------
       NWT REQUIRED            4 OUTER ITERATIONS 
       AND A TOTAL OF          7 INNER ITERATIONS.
    ------------------------------------------------

 NO OUTPUT CONTROL FOR STRESS PERIOD   36   TIME STEP   13
 
 SOLVING FOR HEAD 
                                                   Max.-Head-Change                         Max.-Flux-Residual
  Residual-Control   Outer-Iter.   Inner-Iter.     Column Row Layer    Maximum-Head-Change  Column Row Layer    Maximum-Flux-Residual          L2-NORM 
          0                 1           2             4    7     1       0.2961451008E-01       4    7    1         0.1557279217E+01      0.3706499294E+01
          0                 2           2             4    7     1      -0.2879143536E-02       4    7    1        -0.1556447183E+00      0.3705157226E+00
          0                 3           2             4    7     1       0.1959113749E-03       4    7    1         0.1088691390E-01      0.2592307759E-01
          0                 4           1             4    7     1      -0.7785736533E-05       4    7    1        -0.4447168321E-03      0.1059359903E-02

    ------------------------------------------------
       NWT REQUIRED            4 OUTER ITERATIONS 
       AND A TOTAL OF          7 INNER ITERATIONS.
    ------------------------------------------------

 NO OUTPUT CONTROL FOR STRESS PERIOD   36   TIME STEP   14
 
 SOLVING FOR HEAD 
                                                   Max.-Head-Change                         Max.-Flux-Residual
  Residual-Control   Outer-Iter.   Inner-Iter.     Column Row Layer    Maximum-Head-Change  Column Row Layer    Maximum-Flux-Residual          L2-NORM 
          0                 1           2             4    7     1       0.2926651389E-01       4    7    1         0.1538704212E+01      0.3671291463E+01
          0                 2           2             4    7     1      -0.2845310570E-02       4    7    1        -0.1537881741E+00      0.3669960340E+00
          0                 3           2             4    7     1       0.1936091920E-03       4    7    1         0.1075705255E-01      0.2567671839E-01
          0                 4           1             4    7     1      -0.7694243938E-05       4    7    1        -0.4394120629E-03      0.1049301971E-02

    ------------------------------------------------
       NWT REQUIRED            4 OUTER ITERATIONS 
       AND A TOTAL OF          7 INNER ITERATIONS.
    ------------------------------------------------

 NO OUTPUT CONTROL FOR STRESS PERIOD   36   TIME STEP   15
 
 SOLVING FOR HEAD 
                                                   Max.-Head-Change                         Max.-Flux-Residual
  Residual-Control   Outer-Iter.   Inner-Iter.     Column Row Layer    Maximum-Head-Change  Column Row Layer    Maximum-Flux-Residual          L2-NORM 
          0                 1           2             4    7     1       0.2892753412E-01       4    7    1         0.1520624659E+01      0.3636739845E+01
          0                 2           2             4    7     1      -0.2812354224E-02       4    7    1        -0.1519811511E+00      0.3635420418E+00
          0                 3           2             4    7     1       0.1913666605E-03       4    7    1         0.1063065518E-01      0.2543505783E-01
          0                 4           1             4    7     1      -0.7605122051E-05       4    7    1        -0.4342487982E-03      0.1039419166E-02

    ------------------------------------------------
       NWT REQUIRED            4 OUTER ITERATIONS 
       AND A TOTAL OF          7 INNER ITERATIONS.
    ------------------------------------------------

 NO OUTPUT CONTROL FOR STRESS PERIOD   36   TIME STEP   16
 
 SOLVING FOR HEAD 
                                                   Max.-Head-Change                         Max.-Flux-Residual
  Residual-Control   Outer-Iter.   Inner-Iter.     Column Row Layer    Maximum-Head-Change  Column Row Layer    Maximum-Flux-Residual          L2-NORM 
          0                 1           2             4    7     1       0.2859707572E-01       4    7    1         0.1503012590E+01      0.3602817438E+01
          0                 2           2             4    7     1      -0.2780226367E-02       4    7    1        -0.1502208540E+00      0.3601510016E+00
          0                 3           2             4    7     1       0.1891805047E-03       4    7    1         0.1050752624E-01      0.2519780500E-01
          0                 4           1             4    7     1      -0.7518240546E-05       4    7    1        -0.4292190538E-03      0.1029724645E-02

    ------------------------------------------------
       NWT REQUIRED            4 OUTER ITERATIONS 
       AND A TOTAL OF          7 INNER ITERATIONS.
    ------------------------------------------------

 NO OUTPUT CONTROL FOR STRESS PERIOD   36   TIME STEP   17
 
 SOLVING FOR HEAD 
                                                   Max.-Head-Change                         Max.-Flux-Residual
  Residual-Control   Outer-Iter.   Inner-Iter.     Column Row Layer    Maximum-Head-Change  Column Row Layer    Maximum-Flux-Residual          L2-NORM 
          0                 1           2             4    7     1       0.2827467429E-01       4    7    1         0.1485842340E+01      0.3569497488E+01
          0                 2           2             4    7     1      -0.2748881846E-02       4    7    1        -0.1485047171E+00      0.3568201589E+00
          0                 3           2             4    7     1       0.1870476531E-03       4    7    1         0.1038748629E-01      0.2496475719E-01
          0                 4           1             4    7     1      -0.7433478081E-05       4    7    1        -0.4243155036E-03      0.1020203188E-02

    ------------------------------------------------
       NWT REQUIRED            4 OUTER ITERATIONS 
       AND A TOTAL OF          7 INNER ITERATIONS.
    ------------------------------------------------

 NO OUTPUT CONTROL FOR STRESS PERIOD   36   TIME STEP   18
 
 SOLVING FOR HEAD 
                                                   Max.-Head-Change                         Max.-Flux-Residual
  Residual-Control   Outer-Iter.   Inner-Iter.     Column Row Layer    Maximum-Head-Change  Column Row Layer    Maximum-Flux-Residual          L2-NORM 
          0                 1           2             4    7     1       0.2795990104E-01       4    7    1         0.1469089830E+01      0.3536753941E+01
          0                 2           2             4    7     1      -0.2718278972E-02       4    7    1        -0.1468303339E+00      0.3535469827E+00
          0                 3           2             4    7     1       0.1849652670E-03       4    7    1         0.1027036693E-01      0.2473575538E-01
          0                 4           1             4    7     1      -0.7350720563E-05       4    7    1        -0.4195312513E-03      0.1010845443E-02

    ------------------------------------------------
       NWT REQUIRED            4 OUTER ITERATIONS 
       AND A TOTAL OF          7 INNER ITERATIONS.
    ------------------------------------------------

 NO OUTPUT CONTROL FOR STRESS PERIOD   36   TIME STEP   19
 
 SOLVING FOR HEAD 
                                                   Max.-Head-Change                         Max.-Flux-Residual
  Residual-Control   Outer-Iter.   Inner-Iter.     Column Row Layer    Maximum-Head-Change  Column Row Layer    Maximum-Flux-Residual          L2-NORM 
          0                 1           2             4    7     1       0.2765235891E-01       4    7    1         0.1452732826E+01      0.3504577725E+01
          0                 2           2             4    7     1      -0.2688379140E-02       4    7    1        -0.1451954820E+00      0.3503305242E+00
          0                 3           2             4    7     1       0.1829307210E-03       4    7    1         0.1015601278E-01      0.2451072592E-01
          0                 4           1             4    7     1      -0.7269864261E-05       4    7    1        -0.4148599455E-03      0.1001648894E-02

    ------------------------------------------------
       NWT REQUIRED            4 OUTER ITERATIONS 
       AND A TOTAL OF          7 INNER ITERATIONS.
    ------------------------------------------------

 NO OUTPUT CONTROL FOR STRESS PERIOD   36   TIME STEP   20
 
 SOLVING FOR HEAD 
                                                   Max.-Head-Change                         Max.-Flux-Residual
  Residual-Control   Outer-Iter.   Inner-Iter.     Column Row Layer    Maximum-Head-Change  Column Row Layer    Maximum-Flux-Residual          L2-NORM 
          0                 1           2             4    7     1       0.2735181370E-01       4    7    1         0.1436758036E+01      0.3472952901E+01
          0                 2           2             4    7     1      -0.2659159578E-02       4    7    1        -0.1435988327E+00      0.3471691779E+00
          0                 3           2             4    7     1       0.1809424651E-03       4    7    1         0.1004433086E-01      0.2428952572E-01
          0                 4           1             4    7     1      -0.7190847930E-05       4    7    1        -0.4102978210E-03      0.9926269902E-03

    ------------------------------------------------
       NWT REQUIRED            4 OUTER ITERATIONS 
       AND A TOTAL OF          7 INNER ITERATIONS.
    ------------------------------------------------

 NO OUTPUT CONTROL FOR STRESS PERIOD   36   TIME STEP   21
 
 SOLVING FOR HEAD 
                                                   Max.-Head-Change                         Max.-Flux-Residual
  Residual-Control   Outer-Iter.   Inner-Iter.     Column Row Layer    Maximum-Head-Change  Column Row Layer    Maximum-Flux-Residual          L2-NORM 
          0                 1           2             4    7     1       0.2705791656E-01       4    7    1         0.1421146023E+01      0.3441845177E+01
          0                 2           2             4    7     1      -0.2630586372E-02       4    7    1        -0.1420384434E+00      0.3440595544E+00
          0                 3           2             4    7     1       0.1789981914E-03       4    7    1         0.9935185278E-02      0.2407197389E-01
          0                 4           1             4    7     1      -0.7113579580E-05       4    7    1        -0.4058393010E-03      0.9837243958E-03

    ------------------------------------------------
       NWT REQUIRED            4 OUTER ITERATIONS 
       AND A TOTAL OF          7 INNER ITERATIONS.
    ------------------------------------------------

 NO OUTPUT CONTROL FOR STRESS PERIOD   36   TIME STEP   22
 
 SOLVING FOR HEAD 
                                                   Max.-Head-Change                         Max.-Flux-Residual
  Residual-Control   Outer-Iter.   Inner-Iter.     Column Row Layer    Maximum-Head-Change  Column Row Layer    Maximum-Flux-Residual          L2-NORM 
          0                 1           2             4    7     1       0.2677020834E-01       4    7    1         0.1405871408E+01      0.3411248524E+01
          0                 2           2             4    7     1      -0.2602614877E-02       4    7    1        -0.1405117772E+00      0.3410010191E+00
          0                 3           2             4    7     1       0.1770948619E-03       4    7    1         0.9828398586E-02      0.2385799111E-01
          0                 4           1             4    7     1      -0.7037938559E-05       4    7    1        -0.4014771453E-03      0.9749723764E-03

    ------------------------------------------------
       NWT REQUIRED            4 OUTER ITERATIONS 
       AND A TOTAL OF          7 INNER ITERATIONS.
    ------------------------------------------------

 NO OUTPUT CONTROL FOR STRESS PERIOD   36   TIME STEP   23
 
 SOLVING FOR HEAD 
                                                   Max.-Head-Change                         Max.-Flux-Residual
  Residual-Control   Outer-Iter.   Inner-Iter.     Column Row Layer    Maximum-Head-Change  Column Row Layer    Maximum-Flux-Residual          L2-NORM 
          0                 1           2             4    7     1       0.2648839313E-01       4    7    1         0.1390917677E+01      0.3381146068E+01
          0                 2           2             4    7     1      -0.2575216325E-02       4    7    1        -0.1390171836E+00      0.3379919152E+00
          0                 3           2             4    7     1       0.1752305193E-03       4    7    1         0.9723855345E-02      0.2364747319E-01
          0                 4           1             4    7     1      -0.6963846810E-05       4    7    1        -0.3972066361E-03      0.9663728710E-03

    ------------------------------------------------
       NWT REQUIRED            4 OUTER ITERATIONS 
       AND A TOTAL OF          7 INNER ITERATIONS.
    ------------------------------------------------

 NO OUTPUT CONTROL FOR STRESS PERIOD   36   TIME STEP   24
 
 SOLVING FOR HEAD 
                                                   Max.-Head-Change                         Max.-Flux-Residual
  Residual-Control   Outer-Iter.   Inner-Iter.     Column Row Layer    Maximum-Head-Change  Column Row Layer    Maximum-Flux-Residual          L2-NORM 
          0                 1           2             4    7     1       0.2621246320E-01       4    7    1         0.1376284074E+01      0.3351524935E+01
          0                 2           2             4    7     1      -0.2548389963E-02       4    7    1        -0.1375545871E+00      0.3350308988E+00
          0                 3           2             4    7     1       0.1734051122E-03       4    7    1         0.9621550239E-02      0.2344028889E-01
          0                 4           1             4    7     1      -0.6891302607E-05       4    7    1        -0.3930275720E-03      0.9579066030E-03

    ------------------------------------------------
       NWT REQUIRED            4 OUTER ITERATIONS 
       AND A TOTAL OF          7 INNER ITERATIONS.
    ------------------------------------------------

 NO OUTPUT CONTROL FOR STRESS PERIOD   36   TIME STEP   25
 
 SOLVING FOR HEAD 
                                                   Max.-Head-Change                         Max.-Flux-Residual
  Residual-Control   Outer-Iter.   Inner-Iter.     Column Row Layer    Maximum-Head-Change  Column Row Layer    Maximum-Flux-Residual          L2-NORM 
          0                 1           2             4    7     1       0.2594188490E-01       4    7    1         0.1361941025E+01      0.3322368992E+01
          0                 2           2             4    7     1      -0.2522083717E-02       4    7    1        -0.1361210315E+00      0.3321036775E+00
          0                 3           2             4    7     1       0.1716150965E-03       4    7    1         0.9521276522E-02      0.2323550086E-01
          0                 4           1             4    7     1      -0.6820164802E-05       4    7    1        -0.3889314644E-03      0.9495314455E-03

    ------------------------------------------------
       NWT REQUIRED            4 OUTER ITERATIONS 
       AND A TOTAL OF          7 INNER ITERATIONS.
    ------------------------------------------------

 NO OUTPUT CONTROL FOR STRESS PERIOD   36   TIME STEP   26
 
 SOLVING FOR HEAD 
                                                   Max.-Head-Change                         Max.-Flux-Residual
  Residual-Control   Outer-Iter.   Inner-Iter.     Column Row Layer    Maximum-Head-Change  Column Row Layer    Maximum-Flux-Residual          L2-NORM 
          0                 1           2             4    7     1       0.2567669106E-01       4    7    1         0.1347890047E+01      0.3293675585E+01
          0                 2           2             4    7     1      -0.2496301351E-02       4    7    1        -0.1347166685E+00      0.3292481890E+00
          0                 3           2             4    7     1       0.1698607296E-03       4    7    1         0.9423044808E-02      0.2303572118E-01
          0                 4           1             4    7     1      -0.6750443758E-05       4    7    1        -0.3849187788E-03      0.9413753939E-03

    ------------------------------------------------
       NWT REQUIRED            4 OUTER ITERATIONS 
       AND A TOTAL OF          7 INNER ITERATIONS.
    ------------------------------------------------

 NO OUTPUT CONTROL FOR STRESS PERIOD   36   TIME STEP   27
 
 SOLVING FOR HEAD 
                                                   Max.-Head-Change                         Max.-Flux-Residual
  Residual-Control   Outer-Iter.   Inner-Iter.     Column Row Layer    Maximum-Head-Change  Column Row Layer    Maximum-Flux-Residual          L2-NORM 
          0                 1           2             4    7     1       0.2541638211E-01       4    7    1         0.1334103633E+01      0.3265493307E+01
          0                 2           2             4    7     1      -0.2470993723E-02       4    7    1        -0.1333387487E+00      0.3264310376E+00
          0                 3           2             4    7     1       0.1681386656E-03       4    7    1         0.9326662732E-02      0.2283862272E-01
          0                 4           1             4    7     1      -0.6682006731E-05       4    7    1        -0.3809816521E-03      0.9333179034E-03

    ------------------------------------------------
       NWT REQUIRED            4 OUTER ITERATIONS 
       AND A TOTAL OF          7 INNER ITERATIONS.
    ------------------------------------------------

 NO OUTPUT CONTROL FOR STRESS PERIOD   36   TIME STEP   28
 
 SOLVING FOR HEAD 
                                                   Max.-Head-Change                         Max.-Flux-Residual
  Residual-Control   Outer-Iter.   Inner-Iter.     Column Row Layer    Maximum-Head-Change  Column Row Layer    Maximum-Flux-Residual          L2-NORM 
          0                 1           2             4    7     1       0.2516102338E-01       4    7    1         0.1320585092E+01      0.3237747347E+01
          0                 2           2             4    7     1      -0.2446167421E-02       4    7    1        -0.1319876030E+00      0.3236573211E+00
          0                 3           2             4    7     1       0.1664493571E-03       4    7    1         0.9232153462E-02      0.2264670663E-01
          0                 4           1             4    7     1      -0.6614871222E-05       4    7    1        -0.3771210413E-03      0.9254763310E-03

    ------------------------------------------------
       NWT REQUIRED            4 OUTER ITERATIONS 
       AND A TOTAL OF          7 INNER ITERATIONS.
    ------------------------------------------------

 NO OUTPUT CONTROL FOR STRESS PERIOD   36   TIME STEP   29
 
 SOLVING FOR HEAD 
                                                   Max.-Head-Change                         Max.-Flux-Residual
  Residual-Control   Outer-Iter.   Inner-Iter.     Column Row Layer    Maximum-Head-Change  Column Row Layer    Maximum-Flux-Residual          L2-NORM 
          0                 1           2             4    7     1       0.2491027740E-01       4    7    1         0.1307315913E+01      0.3210410323E+01
          0                 2           2             4    7     1      -0.2421789509E-02       4    7    1        -0.1306613809E+00      0.3209031908E+00
          0                 3           2             4    7     1       0.1647905549E-03       4    7    1         0.9139387548E-02      0.2245189165E-01
          0                 4           1             4    7     1      -0.6548948122E-05       4    7    1        -0.3733316294E-03      0.9175221305E-03

    ------------------------------------------------
       NWT REQUIRED            4 OUTER ITERATIONS 
       AND A TOTAL OF          7 INNER ITERATIONS.
    ------------------------------------------------

 NO OUTPUT CONTROL FOR STRESS PERIOD   36   TIME STEP   30



 STREAM LISTING     PERIOD     36   STEP       30

 LAYER ROW COL. STREAM  RCH.  FLOW INTO     FLOW TO   FLOW OUT OF   OVRLND.     DIRECT     STREAM       STREAM     STREAM     STREAM   STREAMBED  STREAMBED
                SEG.NO.  NO.  STRM. RCH.    AQUIFER    STRM. RCH.    RUNOFF     PRECIP       ET          HEAD       DEPTH      WIDTH   CONDCTNC.   GRADIENT

   1    1    1     1     1    1.9000E+01  2.1427E-01   1.8786E+01  0.000E+00  0.000E+00  0.000E+00  1.09413E+03  1.082E+00  1.166E+01  5.249E-02  1.361E+00
   1    2    2     1     2    1.8786E+01  3.3054E-01   1.8455E+01  0.000E+00  0.000E+00  0.000E+00  1.08914E+03  1.077E+00  1.158E+01  8.107E-02  1.359E+00
   1    3    3     1     3    1.8455E+01  2.8064E-01   1.8175E+01  0.000E+00  0.000E+00  0.000E+00  1.08349E+03  1.072E+00  1.149E+01  6.892E-02  1.357E+00
   1    3    4     1     4    1.8175E+01  2.5740E-01   1.7917E+01  0.000E+00  0.000E+00  0.000E+00  1.07848E+03  1.068E+00  1.140E+01  6.328E-02  1.356E+00
   1    4    5     2     1    1.5917E+01  3.0542E-01   1.5612E+01  0.000E+00  0.000E+00  0.000E+00  1.07285E+03  9.157E-01  1.200E+01  7.800E-02  1.305E+00
   1    5    6     2     2    1.5612E+01  2.3438E-01   1.5377E+01  0.000E+00  0.000E+00  0.000E+00  1.06742E+03  9.063E-01  1.200E+01  6.000E-02  1.302E+00
   1    6    6     2     3    1.5377E+01  2.3388E-01   1.5143E+01  0.000E+00  0.000E+00  0.000E+00  1.06269E+03  8.980E-01  1.200E+01  6.000E-02  1.299E+00
   1    7    6     2     4    1.5143E+01  2.3338E-01   1.4910E+01  0.000E+00  0.000E+00  0.000E+00  1.05797E+03  8.897E-01  1.200E+01  6.000E-02  1.297E+00
   1    8    6     2     5    1.4910E+01  2.3289E-01   1.4677E+01  0.000E+00  0.000E+00  0.000E+00  1.05324E+03  8.814E-01  1.200E+01  6.000E-02  1.294E+00
   1    3    5     3     1    2.0000E+00  2.8252E-01   1.7175E+00  0.000E+00  0.000E+00  0.000E+00  1.07555E+03  1.909E+00  9.636E+00  7.227E-02  1.955E+00
   1    3    6     3     2    1.7175E+00  2.4905E-01   1.4684E+00  0.000E+00  0.000E+00  0.000E+00  1.07264E+03  1.727E+00  8.909E+00  6.682E-02  1.864E+00
   1    3    7     3     3    1.4684E+00  1.9718E-01   1.2712E+00  0.000E+00  0.000E+00  0.000E+00  1.06987E+03  1.555E+00  8.218E+00  5.547E-02  1.777E+00
   1    4    8     3     4    1.2712E+00  2.2567E-01   1.0456E+00  0.000E+00  0.000E+00  0.000E+00  1.06682E+03  1.364E+00  7.455E+00  6.709E-02  1.682E+00
   1    5    8     3     5    1.0456E+00  1.5790E-01   8.8768E-01  0.000E+00  0.000E+00  0.000E+00  1.06362E+03  1.164E+00  6.655E+00  4.991E-02  1.582E+00
   1    6    8     3     6    8.8768E-01  5.5980E-02   8.3170E-01  0.000E+00  0.000E+00  0.000E+00  1.06158E+03  1.036E+00  6.145E+00  1.844E-02  1.518E+00
   1    5   10     4     1    1.0000E+01  9.0919E-02   9.9091E+00  0.000E+00  0.000E+00  0.000E+00  1.07836E+03  6.368E-01  1.000E+01  2.500E-02  1.212E+00
   1    5    9     4     2    9.9091E+00  1.8158E-01   9.7275E+00  0.000E+00  0.000E+00  0.000E+00  1.07154E+03  6.315E-01  1.000E+01  5.000E-02  1.211E+00
   1    6    8     4     3    9.7275E+00  1.2689E-01   9.6006E+00  0.000E+00  0.000E+00  0.000E+00  1.06381E+03  6.256E-01  1.000E+01  3.500E-02  1.209E+00
   1    6    8     5     1    1.0432E+01  2.2686E-01   1.0205E+01  0.000E+00  0.000E+00  0.000E+00  1.05868E+03  6.790E-01  1.542E+01  6.166E-02  1.226E+00
   1    7    7     5     2    1.0205E+01  2.7894E-01   9.9265E+00  0.000E+00  0.000E+00  0.000E+00  1.05417E+03  6.732E-01  1.519E+01  7.594E-02  1.224E+00
   1    8    7     5     3    9.9265E+00  1.9221E-01   9.7343E+00  0.000E+00  0.000E+00  0.000E+00  1.04992E+03  6.676E-01  1.497E+01  5.241E-02  1.223E+00
   1    8    6     5     4    9.7343E+00  1.3577E-01   9.5985E+00  0.000E+00  0.000E+00  0.000E+00  1.04691E+03  6.637E-01  1.482E+01  3.706E-02  1.221E+00
   1    9    6     6     1    2.4276E+01  2.5176E-01   2.4024E+01  0.000E+00  0.000E+00  0.000E+00  1.04392E+03  1.196E+00  1.200E+01  6.000E-02  1.399E+00
   1   10    7     6     2    2.4024E+01  2.5131E-01   2.3773E+01  0.000E+00  0.000E+00  0.000E+00  1.03937E+03  1.188E+00  1.200E+01  6.000E-02  1.396E+00
   1   11    7     6     3    2.3773E+01  2.5086E-01   2.3522E+01  0.000E+00  0.000E+00  0.000E+00  1.03482E+03  1.181E+00  1.200E+01  6.000E-02  1.394E+00
   1   12    7     6     4    2.3522E+01  2.5041E-01   2.3271E+01  0.000E+00  0.000E+00  0.000E+00  1.03026E+03  1.173E+00  1.200E+01  6.000E-02  1.391E+00
   1   13    7     6     5    2.3271E+01  8.1418E-03   2.3263E+01  0.000E+00  0.000E+00  0.000E+00  1.02708E+03  1.170E+00  1.200E+01  2.400E-02  1.131E-01
   1   14    9     7     1    1.5000E+02  1.3583E+00   1.4864E+02  0.000E+00  0.000E+00  0.000E+00  1.03987E+03  2.288E+00  5.529E+01  5.593E-01  8.096E-01
   1   13    8     7     2    1.4864E+02  1.9313E+00   1.4671E+02  0.000E+00  0.000E+00  0.000E+00  1.03478E+03  2.279E+00  5.526E+01  6.148E-01  1.047E+00
   1   13    7     7     3    1.4671E+02  1.6469E+00   1.4506E+02  0.000E+00  0.000E+00  0.000E+00  1.02969E+03  2.269E+00  5.521E+01  5.584E-01  9.831E-01
   1   13    6     8     1    1.6833E+02  1.0888E+00   1.6724E+02  0.000E+00  0.000E+00  0.000E+00  1.02481E+03  2.938E+00  4.260E+01  4.341E-01  8.361E-01
   1   13    5     8     2    1.6724E+02  3.3621E-01   1.6690E+02  0.000E+00  0.000E+00  0.000E+00  1.01856E+03  2.933E+00  4.253E+01  4.334E-01  2.586E-01
   1   13    4     8     3    1.6690E+02 -1.8838E+00   1.6879E+02  0.000E+00  0.000E+00  0.000E+00  1.01231E+03  2.938E+00  4.260E+01  4.341E+00 -1.446E-01
   1   13    3     8     4    1.6879E+02 -3.3900E+00   1.7218E+02  0.000E+00  0.000E+00  0.000E+00  1.00608E+03  2.955E+00  4.285E+01  4.367E+00 -2.588E-01
   1   13    2     8     5    1.7218E+02 -2.5157E+00   1.7469E+02  0.000E+00  0.000E+00  0.000E+00  9.99849E+02  2.974E+00  4.313E+01  4.395E+00 -1.908E-01
   1   13    1     8     6    1.7469E+02 -1.9670E+00   1.7666E+02  0.000E+00  0.000E+00  0.000E+00  9.94864E+02  2.989E+00  4.334E+01  2.650E+00 -2.474E-01





UNSATURATED ZONE PACKAGE VOLUMETRIC BUDGET FOR  TIME STEP    30 STRESS PERIOD   36
  ------------------------------------------------------------------------------



     CUMULATIVE VOLUMES      L**3       RATES FOR THIS TIME STEP      L**3/T
     ------------------                 ------------------------

           IN:                                      IN:
           ---                                      ---
        INFILTRATION =  1505606846.9009          INFILTRATION =           0.8475

          OUT:                                     OUT:
          ----                                     ----
              UZF ET =  1289222271.6145                UZF ET =           0.7500
        UZF RECHARGE =   216051839.3908          UZF RECHARGE =           0.0003

            IN - OUT =      332735.8957              IN - OUT =       9.7187E-02

          STORAGE:                                 STORAGE:
          --------                                 --------
      STORAGE CHANGE =      332714.6319        STORAGE CHANGE =       9.7187E-02

 PERCENT DISCREPANCY IS DIFFERENCE BETWEEN IN-OUT MINUS CHANGE IN STORAGE
 DIVIDED BY THE AVERAGE OF IN AND OUT TIMES 100

 PERCENT DISCREPANCY =           0.00     PERCENT DISCREPANCY =           0.00






1
  VOLUMETRIC BUDGET FOR AGRICULTURAL FIELDS AT  END OF TIME STEP   30, STRESS PERIOD  36
  ------------------------------------------------------------------------------

     CUMULATIVE VOLUMES      L**3       RATES FOR THIS TIME STEP      L**3/T
     ------------------                 ------------------------

           IN:                                      IN:
           ---                                      ---
               AG WELLS  =  1427519104.0000                 AG WELLS  =           0.0000
      DIVERSION SEGMENTS =           0.0000        DIVERSION SEGMENTS =           0.0000
           GW IRRIGATION =           0.0000             GW IRRIGATION =           0.0000
           SW IRRIGATION =           0.0000             SW IRRIGATION =           0.0000
        SYSTEM LOSSES GW =           0.0000          SYSTEM LOSSES GW =           0.0000
        SYSTEM LOSSES SW =           0.0000          SYSTEM LOSSES SW =           0.0000

                TOTAL IN =  1427519104.0000                  TOTAL IN =           0.0000

          OUT:                                     OUT:
          ----                                     ----
               AG WELLS  =           0.0000                 AG WELLS  =           0.0000
      DIVERSION SEGMENTS =           0.0000        DIVERSION SEGMENTS =           0.0000
           GW IRRIGATION =  1427519104.0000             GW IRRIGATION =           0.0000
           SW IRRIGATION =           0.0000             SW IRRIGATION =           0.0000
        SYSTEM LOSSES GW =           0.0000          SYSTEM LOSSES GW =           0.0000
        SYSTEM LOSSES SW =           0.0000          SYSTEM LOSSES SW =           0.0000

               TOTAL OUT =  1427519104.0000                 TOTAL OUT =           0.0000

                IN - OUT =           0.0000                  IN - OUT =           0.0000

     PERCENT DISCREPANCY =           0.00         PERCENT DISCREPANCY =           0.00



1
  VOLUMETRIC BUDGET FOR ENTIRE MODEL AT END OF TIME STEP   30, STRESS PERIOD  36
  ------------------------------------------------------------------------------

     CUMULATIVE VOLUMES      L**3       RATES FOR THIS TIME STEP      L**3/T
     ------------------                 ------------------------

           IN:                                      IN:
           ---                                      ---
             STORAGE     =  1819482240.0000               STORAGE     =           8.5914
       CONSTANT HEAD     =           0.0000         CONSTANT HEAD     =           0.0000
     HEAD DEP BOUNDS     =    26334640.0000       HEAD DEP BOUNDS     =           0.2873
      STREAM LEAKAGE     =  1129925248.0000        STREAM LEAKAGE     =          12.0983
        UZF RECHARGE     =   216051808.0000          UZF RECHARGE     =       3.1320E-04
               GW ET     =           0.0000                 GW ET     =           0.0000
     SURFACE LEAKAGE     =           0.0000       SURFACE LEAKAGE     =           0.0000
           AG WELLS      =           0.0000             AG WELLS      =           0.0000

                TOTAL IN =  3191793664.0000                  TOTAL IN =          20.9773

          OUT:                                     OUT:
          ----                                     ----
             STORAGE     =   775355200.0000               STORAGE     =          10.9318
       CONSTANT HEAD     =           0.0000         CONSTANT HEAD     =           0.0000
     HEAD DEP BOUNDS     =    26952396.0000       HEAD DEP BOUNDS     =           0.2890
      STREAM LEAKAGE     =   944423040.0000        STREAM LEAKAGE     =           9.7565
        UZF RECHARGE     =           0.0000          UZF RECHARGE     =           0.0000
               GW ET     =    17516984.0000                 GW ET     =           0.0000
     SURFACE LEAKAGE     =           0.0000       SURFACE LEAKAGE     =           0.0000
           AG WELLS      =  1427519104.0000             AG WELLS      =           0.0000

               TOTAL OUT =  3191766528.0000                 TOTAL OUT =          20.9773

                IN - OUT =       27136.0000                  IN - OUT =       1.1444E-05

     PERCENT DISCREPANCY =           0.00         PERCENT DISCREPANCY =           0.00






         TIME SUMMARY AT END OF TIME STEP   30 IN STRESS PERIOD   36
                    SECONDS     MINUTES      HOURS       DAYS        YEARS
                    -----------------------------------------------------------
   TIME STEP LENGTH  87667.      1461.1      24.352      1.0147     2.77799E-03
 STRESS PERIOD TIME 2.63000E+06  43833.      730.56      30.440     8.33397E-02
         TOTAL TIME 9.21360E+07 1.53560E+06  25593.      1066.4      2.9196    
1
1
                            STRESS PERIOD NO.   37, LENGTH =   2630000.    
                            -----------------------------------------------

                              NUMBER OF TIME STEPS =    30

                               MULTIPLIER FOR DELT =     1.000

                            INITIAL TIME STEP SIZE =   87666.66    

 REUSING NON-PARAMETER GHB CELLS FROM LAST STRESS PERIOD

      2 GHB CELLS

 REUSING STREAM SEGMENT DATA FROM LAST STRESS PERIOD



            AREAL INFILTRATION RATE
 READING ON UNIT   19 WITH FORMAT: (FREE)              

            1           2           3           4           5           6           7           8           9          10
 ........................................................................................................................
   1   1.0000E-10  2.0000E-10   0.000       0.000       0.000       0.000       0.000       0.000       0.000       0.000    
   2   2.0000E-10  1.0000E-10  2.0000E-10   0.000       0.000      8.0000E-10  8.0000E-10  5.0000E-10   0.000       0.000    
   3    0.000      5.0000E-10  1.0000E-10  1.0000E-10  8.0000E-10  8.0000E-10  5.0000E-10  5.0000E-10   0.000       0.000    
   4   8.0000E-10  5.0000E-10  1.0000E-10  1.0000E-10  1.0000E-10  1.0000E-10  1.0000E-10  1.0000E-10  2.0000E-10   0.000    
   5   8.0000E-10  5.0000E-10  1.0000E-10  1.0000E-10  1.0000E-10  1.0000E-10  1.0000E-10  1.0000E-10  1.0000E-10  1.0000E-10
   6   8.0000E-10  5.0000E-10  5.0000E-10  2.0000E-10  2.0000E-10  1.0000E-10  1.0000E-10  1.0000E-10  1.0000E-10  5.0000E-10
   7   8.0000E-10  5.0000E-10  5.0000E-10  2.0000E-10  2.0000E-10  1.0000E-10  1.0000E-10  2.0000E-10  2.0000E-10   0.000    
   8    0.000      5.0000E-10  5.0000E-10  2.0000E-10  2.0000E-10  1.0000E-10  1.0000E-10  2.0000E-10  5.0000E-10   0.000    
   9    0.000      5.0000E-10  5.0000E-10  2.0000E-10  2.0000E-10  1.0000E-10  1.0000E-10  2.0000E-10  5.0000E-10   0.000    
  10    0.000      5.0000E-10  5.0000E-10  2.0000E-10  2.0000E-10  1.0000E-10  1.0000E-10  2.0000E-10  5.0000E-10  8.0000E-10
  11    0.000      1.0000E-10  1.0000E-10  1.0000E-10  1.0000E-10  1.0000E-10  1.0000E-10  2.0000E-10  5.0000E-10   0.000    
  12   1.0000E-10  1.0000E-10  1.0000E-10  1.0000E-10  1.0000E-10  1.0000E-10  1.0000E-10  1.0000E-10  2.0000E-10   0.000    
  13   1.0000E-10  1.0000E-10  2.0000E-10  2.0000E-10  2.0000E-10  2.0000E-10  2.0000E-10  1.0000E-10  1.0000E-10   0.000    
  14    0.000      2.0000E-10  5.0000E-10  5.0000E-10  5.0000E-10  5.0000E-10  5.0000E-10  2.0000E-10  1.0000E-10   0.000    
  15    0.000       0.000      8.0000E-10  8.0000E-10  8.0000E-10  8.0000E-10   0.000       0.000       0.000       0.000    

                  ET RATE =  5.000000E-10

 USING ET EXTINCTION DEPTH FROM PREVIOUS STRESS PERIOD. CURRENT PERIOD IS:      37

 USING EXTINCTION WATER CONTENT FROM PREVIOUS STRESS PERIOD. CURRENT PERIOD IS:      37

 USING AIR ENTRY PRESSURE FROM PREVIOUS STRESS PERIOD. CURRENT PERIOD IS:      37

 USING ROOT PRESSURE HEAD FROM PREVIOUS STRESS PERIOD. CURRENT PERIOD IS:      37

 USING ROOT ACTIVITY FROM PREVIOUS STRESS PERIOD. CURRENT PERIOD IS:      37

 PROCESSING AG STRESS PERIOD DATA

 READING AG STRESS PERIOD DATA

 READING IRRIGATION WELL

 END PROCESSING AG STRESS PERIOD DATA OPTIONS
 
 SOLVING FOR HEAD 
                                                   Max.-Head-Change                         Max.-Flux-Residual
  Residual-Control   Outer-Iter.   Inner-Iter.     Column Row Layer    Maximum-Head-Change  Column Row Layer    Maximum-Flux-Residual          L2-NORM 
          0                 1           2             4    7     1       0.2466395816E-01       4    7    1         0.1294285900E+01      0.3183494158E+01
          0                 2           2             4    7     1      -0.2397842028E-02       4    7    1        -0.1293590634E+00      0.3182343538E+00
          0                 3           2             4    7     1       0.1631610444E-03       4    7    1         0.9048293746E-02      0.2226516977E-01
          0                 4           1             4    7     1      -0.6484189192E-05       4    7    1        -0.3696105327E-03      0.9098915356E-03

    ------------------------------------------------
       NWT REQUIRED            4 OUTER ITERATIONS 
       AND A TOTAL OF          7 INNER ITERATIONS.
    ------------------------------------------------

 NO OUTPUT CONTROL FOR STRESS PERIOD   37   TIME STEP    1
 
 SOLVING FOR HEAD 
                                                   Max.-Head-Change                         Max.-Flux-Residual
  Residual-Control   Outer-Iter.   Inner-Iter.     Column Row Layer    Maximum-Head-Change  Column Row Layer    Maximum-Flux-Residual          L2-NORM 
          0                 1           2             4    7     1       0.2442189598E-01       4    7    1         0.1281485403E+01      0.3156979292E+01
          0                 2           2             4    7     1      -0.2374308409E-02       4    7    1        -0.1280796860E+00      0.3155838899E+00
          0                 3           2             4    7     1       0.1615596960E-03       4    7    1         0.8958804575E-02      0.2207972802E-01
          0                 4           1             4    7     1      -0.6420549763E-05       4    7    1        -0.3659550039E-03      0.9023004000E-03

    ------------------------------------------------
       NWT REQUIRED            4 OUTER ITERATIONS 
       AND A TOTAL OF          7 INNER ITERATIONS.
    ------------------------------------------------

 NO OUTPUT CONTROL FOR STRESS PERIOD   37   TIME STEP    2
 
 SOLVING FOR HEAD 
                                                   Max.-Head-Change                         Max.-Flux-Residual
  Residual-Control   Outer-Iter.   Inner-Iter.     Column Row Layer    Maximum-Head-Change  Column Row Layer    Maximum-Flux-Residual          L2-NORM 
          0                 1           2             4    7     1       0.2418406316E-01       4    7    1         0.1268912924E+01      0.3130850749E+01
          0                 2           2             4    7     1      -0.2351185983E-02       4    7    1        -0.1268230990E+00      0.3129720731E+00
          0                 3           2             4    7     1       0.1599863269E-03       4    7    1         0.8870909529E-02      0.2189701122E-01
          0                 4           1             4    7     1      -0.6358021891E-05       4    7    1        -0.3623645625E-03      0.8948428771E-03

    ------------------------------------------------
       NWT REQUIRED            4 OUTER ITERATIONS 
       AND A TOTAL OF          7 INNER ITERATIONS.
    ------------------------------------------------

 NO OUTPUT CONTROL FOR STRESS PERIOD   37   TIME STEP    3
 
 SOLVING FOR HEAD 
                                                   Max.-Head-Change                         Max.-Flux-Residual
  Residual-Control   Outer-Iter.   Inner-Iter.     Column Row Layer    Maximum-Head-Change  Column Row Layer    Maximum-Flux-Residual          L2-NORM 
          0                 1           2             4    7     1       0.2395016811E-01       4    7    1         0.1256552432E+01      0.3105091640E+01
          0                 2           2             4    7     1      -0.2328446399E-02       4    7    1        -0.1255877000E+00      0.3103971862E+00
          0                 3           2             4    7     1       0.1584390087E-03       4    7    1         0.8784496558E-02      0.2171687162E-01
          0                 4           1             4    7     1      -0.6296529362E-05       4    7    1        -0.3588346763E-03      0.8874801628E-03

    ------------------------------------------------
       NWT REQUIRED            4 OUTER ITERATIONS 
       AND A TOTAL OF          7 INNER ITERATIONS.
    ------------------------------------------------

 NO OUTPUT CONTROL FOR STRESS PERIOD   37   TIME STEP    4
 
 SOLVING FOR HEAD 
                                                   Max.-Head-Change                         Max.-Flux-Residual
  Residual-Control   Outer-Iter.   Inner-Iter.     Column Row Layer    Maximum-Head-Change  Column Row Layer    Maximum-Flux-Residual          L2-NORM 
          0                 1           2             4    7     1       0.2372020113E-01       4    7    1         0.1244403404E+01      0.3079709064E+01
          0                 2           2             4    7     1      -0.2306088714E-02       4    7    1        -0.1243734367E+00      0.3078599333E+00
          0                 3           2             4    7     1       0.1569176774E-03       4    7    1         0.8699561992E-02      0.2153936321E-01
          0                 4           1             4    7     1      -0.6236070218E-05       4    7    1        -0.3553652014E-03      0.8802260282E-03

    ------------------------------------------------
       NWT REQUIRED            4 OUTER ITERATIONS 
       AND A TOTAL OF          7 INNER ITERATIONS.
    ------------------------------------------------

 NO OUTPUT CONTROL FOR STRESS PERIOD   37   TIME STEP    5
 
 SOLVING FOR HEAD 
                                                   Max.-Head-Change                         Max.-Flux-Residual
  Residual-Control   Outer-Iter.   Inner-Iter.     Column Row Layer    Maximum-Head-Change  Column Row Layer    Maximum-Flux-Residual          L2-NORM 
          0                 1           2             4    7     1       0.2349388999E-01       4    7    1         0.1232450741E+01      0.3054682379E+01
          0                 2           2             4    7     1      -0.2284086460E-02       4    7    1        -0.1231788000E+00      0.3053582553E+00
          0                 3           2             4    7     1       0.1554205318E-03       4    7    1         0.8616000280E-02      0.2136437280E-01
          0                 4           1             4    7     1      -0.6176571353E-05       4    7    1        -0.3519517841E-03      0.8730690745E-03

    ------------------------------------------------
       NWT REQUIRED            4 OUTER ITERATIONS 
       AND A TOTAL OF          7 INNER ITERATIONS.
    ------------------------------------------------

 NO OUTPUT CONTROL FOR STRESS PERIOD   37   TIME STEP    6
 
 SOLVING FOR HEAD 
                                                   Max.-Head-Change                         Max.-Flux-Residual
  Residual-Control   Outer-Iter.   Inner-Iter.     Column Row Layer    Maximum-Head-Change  Column Row Layer    Maximum-Flux-Residual          L2-NORM 
          0                 1           2             4    7     1       0.2327124296E-01       4    7    1         0.1220694924E+01      0.3030008665E+01
          0                 2           2             4    7     1      -0.2262440443E-02       4    7    1        -0.1220038379E+00      0.3028918961E+00
          0                 3           2             4    7     1       0.1539476260E-03       4    7    1         0.8533814748E-02      0.2119179355E-01
          0                 4           1             4    7     1      -0.6118036451E-05       4    7    1        -0.3485945867E-03      0.8660216468E-03

    ------------------------------------------------
       NWT REQUIRED            4 OUTER ITERATIONS 
       AND A TOTAL OF          7 INNER ITERATIONS.
    ------------------------------------------------

 NO OUTPUT CONTROL FOR STRESS PERIOD   37   TIME STEP    7
 
 SOLVING FOR HEAD 
                                                   Max.-Head-Change                         Max.-Flux-Residual
  Residual-Control   Outer-Iter.   Inner-Iter.     Column Row Layer    Maximum-Head-Change  Column Row Layer    Maximum-Flux-Residual          L2-NORM 
          0                 1           2             4    7     1       0.2305213445E-01       4    7    1         0.1209129085E+01      0.3005675062E+01
          0                 2           2             4    7     1      -0.2241138450E-02       4    7    1        -0.1208478640E+00      0.3004595091E+00
          0                 3           2             4    7     1       0.1524981303E-03       4    7    1         0.8452957428E-02      0.2102162535E-01
          0                 4           1             4    7     1      -0.6060431781E-05       4    7    1        -0.3452916585E-03      0.8590773248E-03

    ------------------------------------------------
       NWT REQUIRED            4 OUTER ITERATIONS 
       AND A TOTAL OF          7 INNER ITERATIONS.
    ------------------------------------------------

 NO OUTPUT CONTROL FOR STRESS PERIOD   37   TIME STEP    8
 
 SOLVING FOR HEAD 
                                                   Max.-Head-Change                         Max.-Flux-Residual
  Residual-Control   Outer-Iter.   Inner-Iter.     Column Row Layer    Maximum-Head-Change  Column Row Layer    Maximum-Flux-Residual          L2-NORM 
          0                 1           2             4    7     1       0.2283631606E-01       4    7    1         0.1197739412E+01      0.2981677551E+01
          0                 2           2             4    7     1      -0.2220156332E-02       4    7    1        -0.1197094977E+00      0.2980607446E+00
          0                 3           2             4    7     1       0.1510704002E-03       4    7    1         0.8373331714E-02      0.2085381514E-01
          0                 4           1             4    7     1      -0.6003691834E-05       4    7    1        -0.3420390244E-03      0.8522137512E-03

    ------------------------------------------------
       NWT REQUIRED            4 OUTER ITERATIONS 
       AND A TOTAL OF          7 INNER ITERATIONS.
    ------------------------------------------------

 NO OUTPUT CONTROL FOR STRESS PERIOD   37   TIME STEP    9
 
 SOLVING FOR HEAD 
                                                   Max.-Head-Change                         Max.-Flux-Residual
  Residual-Control   Outer-Iter.   Inner-Iter.     Column Row Layer    Maximum-Head-Change  Column Row Layer    Maximum-Flux-Residual          L2-NORM 
          0                 1           2             4    7     1       0.2262381998E-01       4    7    1         0.1186527625E+01      0.2958015476E+01
          0                 2           2             4    7     1      -0.2199497218E-02       4    7    1        -0.1185889110E+00      0.2956955051E+00
          0                 3           2             4    7     1       0.1496646492E-03       4    7    1         0.8294949661E-02      0.2068833164E-01
          0                 4           1             4    7     1      -0.5947825360E-05       4    7    1        -0.3388371829E-03      0.8454494091E-03

    ------------------------------------------------
       NWT REQUIRED            4 OUTER ITERATIONS 
       AND A TOTAL OF          7 INNER ITERATIONS.
    ------------------------------------------------

 NO OUTPUT CONTROL FOR STRESS PERIOD   37   TIME STEP   10
 
 SOLVING FOR HEAD 
                                                   Max.-Head-Change                         Max.-Flux-Residual
  Residual-Control   Outer-Iter.   Inner-Iter.     Column Row Layer    Maximum-Head-Change  Column Row Layer    Maximum-Flux-Residual          L2-NORM 
          0                 1           2             4    7     1       0.2241453740E-01       4    7    1         0.1175488093E+01      0.2934671342E+01
          0                 2           2             4    7     1      -0.2179150529E-02       4    7    1        -0.1174855410E+00      0.2933620375E+00
          0                 3           2             4    7     1       0.1482801574E-03       4    7    1         0.8217771859E-02      0.2052507957E-01
          0                 4           1             4    7     1      -0.5892804268E-05       4    7    1        -0.3356845682E-03      0.8387744779E-03

    ------------------------------------------------
       NWT REQUIRED            4 OUTER ITERATIONS 
       AND A TOTAL OF          7 INNER ITERATIONS.
    ------------------------------------------------

 NO OUTPUT CONTROL FOR STRESS PERIOD   37   TIME STEP   11
 
 SOLVING FOR HEAD 
                                                   Max.-Head-Change                         Max.-Flux-Residual
  Residual-Control   Outer-Iter.   Inner-Iter.     Column Row Layer    Maximum-Head-Change  Column Row Layer    Maximum-Flux-Residual          L2-NORM 
          0                 1           2             4    7     1       0.2220837186E-01       4    7    1         0.1164615176E+01      0.2911648079E+01
          0                 2           2             4    7     1      -0.2159106887E-02       4    7    1        -0.1163988240E+00      0.2910606564E+00
          0                 3           2             4    7     1       0.1469162866E-03       4    7    1         0.8141758908E-02      0.2036408491E-01
          0                 4           1             4    7     1      -0.5838602308E-05       4    7    1        -0.3325795146E-03      0.8322073755E-03

    ------------------------------------------------
       NWT REQUIRED            4 OUTER ITERATIONS 
       AND A TOTAL OF          7 INNER ITERATIONS.
    ------------------------------------------------

 NO OUTPUT CONTROL FOR STRESS PERIOD   37   TIME STEP   12
 
 SOLVING FOR HEAD 
                                                   Max.-Head-Change                         Max.-Flux-Residual
  Residual-Control   Outer-Iter.   Inner-Iter.     Column Row Layer    Maximum-Head-Change  Column Row Layer    Maximum-Flux-Residual          L2-NORM 
          0                 1           2             4    7     1       0.2200523337E-01       4    7    1         0.1153903871E+01      0.2888939682E+01
          0                 2           2             4    7     1      -0.2139357540E-02       4    7    1        -0.1153282599E+00      0.2887907214E+00
          0                 3           2             4    7     1       0.1455724413E-03       4    7    1         0.8066875813E-02      0.2020525627E-01
          0                 4           1             4    7     1      -0.5785196342E-05       4    7    1        -0.3295206357E-03      0.8257127892E-03

    ------------------------------------------------
       NWT REQUIRED            4 OUTER ITERATIONS 
       AND A TOTAL OF          7 INNER ITERATIONS.
    ------------------------------------------------

 NO OUTPUT CONTROL FOR STRESS PERIOD   37   TIME STEP   13
 
 SOLVING FOR HEAD 
                                                   Max.-Head-Change                         Max.-Flux-Residual
  Residual-Control   Outer-Iter.   Inner-Iter.     Column Row Layer    Maximum-Head-Change  Column Row Layer    Maximum-Flux-Residual          L2-NORM 
          0                 1           2             4    7     1       0.2180502809E-01       4    7    1         0.1143349512E+01      0.2866530521E+01
          0                 2           2             4    7     1      -0.2119893370E-02       4    7    1        -0.1142733824E+00      0.2865507717E+00
          0                 3           2             4    7     1       0.1442480009E-03       4    7    1         0.7993089978E-02      0.2004858021E-01
          0                 4           1             4    7     1      -0.5732561614E-05       4    7    1        -0.3265065570E-03      0.8193223167E-03

    ------------------------------------------------
       NWT REQUIRED            4 OUTER ITERATIONS 
       AND A TOTAL OF          7 INNER ITERATIONS.
    ------------------------------------------------

 NO OUTPUT CONTROL FOR STRESS PERIOD   37   TIME STEP   14
 
 SOLVING FOR HEAD 
                                                   Max.-Head-Change                         Max.-Flux-Residual
  Residual-Control   Outer-Iter.   Inner-Iter.     Column Row Layer    Maximum-Head-Change  Column Row Layer    Maximum-Flux-Residual          L2-NORM 
          0                 1           2             4    7     1       0.2160754238E-01       4    7    1         0.1132939934E+01      0.2844419856E+01
          0                 2           2             4    7     1      -0.2100694000E-02       4    7    1        -0.1132329755E+00      0.2843715654E+00
          0                 3           2             4    7     1       0.1429415791E-03       4    7    1         0.7920316327E-02      0.1989612185E-01
          0                 4           1             4    7     1      -0.5680642751E-05       4    7    1        -0.3235338449E-03      0.8130729397E-03

    ------------------------------------------------
       NWT REQUIRED            4 OUTER ITERATIONS 
       AND A TOTAL OF          7 INNER ITERATIONS.
    ------------------------------------------------

 NO OUTPUT CONTROL FOR STRESS PERIOD   37   TIME STEP   15
 
 SOLVING FOR HEAD 
                                                   Max.-Head-Change                         Max.-Flux-Residual
  Residual-Control   Outer-Iter.   Inner-Iter.     Column Row Layer    Maximum-Head-Change  Column Row Layer    Maximum-Flux-Residual          L2-NORM 
          0                 1           2             4    7     1       0.2141296755E-01       4    7    1         0.1122685941E+01      0.2822576450E+01
          0                 2           2             4    7     1      -0.2081776836E-02       4    7    1        -0.1122081193E+00      0.2821572167E+00
          0                 3           2             4    7     1       0.1416543602E-03       4    7    1         0.7848630422E-02      0.1974120627E-01
          0                 4           1             4    7     1      -0.5629487298E-05       4    7    1        -0.3206055449E-03      0.8067538084E-03

    ------------------------------------------------
       NWT REQUIRED            4 OUTER ITERATIONS 
       AND A TOTAL OF          7 INNER ITERATIONS.
    ------------------------------------------------

 NO OUTPUT CONTROL FOR STRESS PERIOD   37   TIME STEP   16
 
 SOLVING FOR HEAD 
                                                   Max.-Head-Change                         Max.-Flux-Residual
  Residual-Control   Outer-Iter.   Inner-Iter.     Column Row Layer    Maximum-Head-Change  Column Row Layer    Maximum-Flux-Residual          L2-NORM 
          0                 1           2             4    7     1       0.2122109049E-01       4    7    1         0.1112575613E+01      0.2800990411E+01
          0                 2           2             4    7     1      -0.2063122354E-02       4    7    1        -0.1111976221E+00      0.2799995142E+00
          0                 3           2             4    7     1       0.1403850153E-03       4    7    1         0.7777948872E-02      0.1959029150E-01
          0                 4           1             4    7     1      -0.5579041838E-05       4    7    1        -0.3177182853E-03      0.8006312490E-03

    ------------------------------------------------
       NWT REQUIRED            4 OUTER ITERATIONS 
       AND A TOTAL OF          7 INNER ITERATIONS.
    ------------------------------------------------

 NO OUTPUT CONTROL FOR STRESS PERIOD   37   TIME STEP   17
 
 SOLVING FOR HEAD 
                                                   Max.-Head-Change                         Max.-Flux-Residual
  Residual-Control   Outer-Iter.   Inner-Iter.     Column Row Layer    Maximum-Head-Change  Column Row Layer    Maximum-Flux-Residual          L2-NORM 
          0                 1           2             4    7     1       0.2103183702E-01       4    7    1         0.1102605138E+01      0.2779689338E+01
          0                 2           2             4    7     1      -0.2044722943E-02       4    7    1        -0.1102011031E+00      0.2778702861E+00
          0                 3           2             4    7     1       0.1391330275E-03       4    7    1         0.7708245097E-02      0.1944130591E-01
          0                 4           1             4    7     1      -0.5529286912E-05       4    7    1        -0.3148709775E-03      0.7945194408E-03

    ------------------------------------------------
       NWT REQUIRED            4 OUTER ITERATIONS 
       AND A TOTAL OF          7 INNER ITERATIONS.
    ------------------------------------------------

 NO OUTPUT CONTROL FOR STRESS PERIOD   37   TIME STEP   18
 
 SOLVING FOR HEAD 
                                                   Max.-Head-Change                         Max.-Flux-Residual
  Residual-Control   Outer-Iter.   Inner-Iter.     Column Row Layer    Maximum-Head-Change  Column Row Layer    Maximum-Flux-Residual          L2-NORM 
          0                 1           2             4    7     1       0.2084527421E-01       4    7    1         0.1092777994E+01      0.2758668095E+01
          0                 2           2             4    7     1      -0.2026585124E-02       4    7    1        -0.1092189097E+00      0.2757690206E+00
          0                 3           2             4    7     1       0.1378988390E-03       4    7    1         0.7639543328E-02      0.1929426733E-01
          0                 4           1             4    7     1      -0.5480238640E-05       4    7    1        -0.3120645911E-03      0.7884886044E-03

    ------------------------------------------------
       NWT REQUIRED            4 OUTER ITERATIONS 
       AND A TOTAL OF          7 INNER ITERATIONS.
    ------------------------------------------------

 NO OUTPUT CONTROL FOR STRESS PERIOD   37   TIME STEP   19
 
 SOLVING FOR HEAD 
                                                   Max.-Head-Change                         Max.-Flux-Residual
  Residual-Control   Outer-Iter.   Inner-Iter.     Column Row Layer    Maximum-Head-Change  Column Row Layer    Maximum-Flux-Residual          L2-NORM 
          0                 1           2             4    7     1       0.2066106141E-01       4    7    1         0.1083075750E+01      0.2737916279E+01
          0                 2           2             4    7     1      -0.2008728712E-02       4    7    1        -0.1082491999E+00      0.2737617773E+00
          0                 3           2             4    7     1       0.1366837975E-03       4    7    1         0.7571714648E-02      0.1915386923E-01
          0                 4           1             4    7     1      -0.5431951246E-05       4    7    1        -0.3092938514E-03      0.7827520003E-03

    ------------------------------------------------
       NWT REQUIRED            4 OUTER ITERATIONS 
       AND A TOTAL OF          7 INNER ITERATIONS.
    ------------------------------------------------

 NO OUTPUT CONTROL FOR STRESS PERIOD   37   TIME STEP   20
 
 SOLVING FOR HEAD 
                                                   Max.-Head-Change                         Max.-Flux-Residual
  Residual-Control   Outer-Iter.   Inner-Iter.     Column Row Layer    Maximum-Head-Change  Column Row Layer    Maximum-Flux-Residual          L2-NORM 
          0                 1           2             4    7     1       0.2047923580E-01       4    7    1         0.1073507133E+01      0.2717380693E+01
          0                 2           2             4    7     1      -0.1990998550E-02       4    7    1        -0.1072928466E+00      0.2716419515E+00
          0                 3           2             4    7     1       0.1354773514E-03       4    7    1         0.7504820527E-02      0.1900559842E-01
          0                 4           1             4    7     1      -0.5384006012E-05       4    7    1        -0.3065613246E-03      0.7777558317E-03

    ------------------------------------------------
       NWT REQUIRED            4 OUTER ITERATIONS 
       AND A TOTAL OF          7 INNER ITERATIONS.
    ------------------------------------------------

 NO OUTPUT CONTROL FOR STRESS PERIOD   37   TIME STEP   21
 
 SOLVING FOR HEAD 
                                                   Max.-Head-Change                         Max.-Flux-Residual
  Residual-Control   Outer-Iter.   Inner-Iter.     Column Row Layer    Maximum-Head-Change  Column Row Layer    Maximum-Flux-Residual          L2-NORM 
          0                 1           2             4    7     1       0.2029976920E-01       4    7    1         0.1064060626E+01      0.2697089418E+01
          0                 2           2             4    7     1      -0.1973550645E-02       4    7    1        -0.1063486977E+00      0.2696138183E+00
          0                 3           2             4    7     1       0.1342901087E-03       4    7    1         0.7438779911E-02      0.1886369968E-01
          0                 4           1             4    7     1      -0.5336823383E-05       4    7    1        -0.3038636314E-03      0.7708981125E-03

    ------------------------------------------------
       NWT REQUIRED            4 OUTER ITERATIONS 
       AND A TOTAL OF          7 INNER ITERATIONS.
    ------------------------------------------------

 NO OUTPUT CONTROL FOR STRESS PERIOD   37   TIME STEP   22
 
 SOLVING FOR HEAD 
                                                   Max.-Head-Change                         Max.-Flux-Residual
  Residual-Control   Outer-Iter.   Inner-Iter.     Column Row Layer    Maximum-Head-Change  Column Row Layer    Maximum-Flux-Residual          L2-NORM 
          0                 1           2             4    7     1       0.2012255635E-01       4    7    1         0.1054733609E+01      0.2677059626E+01
          0                 2           2             4    7     1      -0.1956321852E-02       4    7    1        -0.1054164915E+00      0.2676117008E+00
          0                 3           2             4    7     1       0.1331177760E-03       4    7    1         0.7373574670E-02      0.1872360219E-01
          0                 4           1             4    7     1      -0.5290233891E-05       4    7    1        -0.3012000820E-03      0.7651509562E-03

    ------------------------------------------------
       NWT REQUIRED            4 OUTER ITERATIONS 
       AND A TOTAL OF          7 INNER ITERATIONS.
    ------------------------------------------------

 NO OUTPUT CONTROL FOR STRESS PERIOD   37   TIME STEP   23
 
 SOLVING FOR HEAD 
                                                   Max.-Head-Change                         Max.-Flux-Residual
  Residual-Control   Outer-Iter.   Inner-Iter.     Column Row Layer    Maximum-Head-Change  Column Row Layer    Maximum-Flux-Residual          L2-NORM 
          0                 1           2             4    7     1       0.1994769086E-01       4    7    1         0.1045530748E+01      0.2657290442E+01
          0                 2           2             4    7     1      -0.1939321274E-02       4    7    1        -0.1044966945E+00      0.2656356127E+00
          0                 3           2             4    7     1       0.1319609724E-03       4    7    1         0.7309237429E-02      0.1858538221E-01
          0                 4           1             4    7     1      -0.5244261367E-05       4    7    1        -0.2985719998E-03      0.7595248171E-03

    ------------------------------------------------
       NWT REQUIRED            4 OUTER ITERATIONS 
       AND A TOTAL OF          7 INNER ITERATIONS.
    ------------------------------------------------

 NO OUTPUT CONTROL FOR STRESS PERIOD   37   TIME STEP   24
 
 SOLVING FOR HEAD 
                                                   Max.-Head-Change                         Max.-Flux-Residual
  Residual-Control   Outer-Iter.   Inner-Iter.     Column Row Layer    Maximum-Head-Change  Column Row Layer    Maximum-Flux-Residual          L2-NORM 
          0                 1           2             4    7     1       0.1977498550E-01       4    7    1         0.1036442289E+01      0.2637773334E+01
          0                 2           2             4    7     1      -0.1922530709E-02       4    7    1        -0.1035883317E+00      0.2636847678E+00
          0                 3           2             4    7     1       0.1308184581E-03       4    7    1         0.7245699965E-02      0.1844892657E-01
          0                 4           1             4    7     1      -0.5198856193E-05       4    7    1        -0.2959765425E-03      0.7539469547E-03

    ------------------------------------------------
       NWT REQUIRED            4 OUTER ITERATIONS 
       AND A TOTAL OF          7 INNER ITERATIONS.
    ------------------------------------------------

 NO OUTPUT CONTROL FOR STRESS PERIOD   37   TIME STEP   25
 
 SOLVING FOR HEAD 
                                                   Max.-Head-Change                         Max.-Flux-Residual
  Residual-Control   Outer-Iter.   Inner-Iter.     Column Row Layer    Maximum-Head-Change  Column Row Layer    Maximum-Flux-Residual          L2-NORM 
          0                 1           2             4    7     1       0.1960453030E-01       4    7    1         0.1027473134E+01      0.2618508150E+01
          0                 2           2             4    7     1      -0.1905958906E-02       4    7    1        -0.1026918932E+00      0.2617590556E+00
          0                 3           2             4    7     1       0.1296908305E-03       4    7    1         0.7182996572E-02      0.1831416335E-01
          0                 4           1             4    7     1      -0.5154043235E-05       4    7    1        -0.2934152117E-03      0.7484180384E-03

    ------------------------------------------------
       NWT REQUIRED            4 OUTER ITERATIONS 
       AND A TOTAL OF          7 INNER ITERATIONS.
    ------------------------------------------------

 NO OUTPUT CONTROL FOR STRESS PERIOD   37   TIME STEP   26
 
 SOLVING FOR HEAD 
                                                   Max.-Head-Change                         Max.-Flux-Residual
  Residual-Control   Outer-Iter.   Inner-Iter.     Column Row Layer    Maximum-Head-Change  Column Row Layer    Maximum-Flux-Residual          L2-NORM 
          0                 1           2             4    7     1       0.1943614782E-01       4    7    1         0.1018613339E+01      0.2599487242E+01
          0                 2           2             4    7     1      -0.1889588618E-02       4    7    1        -0.1018063849E+00      0.2598577649E+00
          0                 3           2             4    7     1       0.1285769142E-03       4    7    1         0.7121057733E-02      0.1818116106E-01
          0                 4           1             4    7     1      -0.5109774485E-05       4    7    1        -0.2908850547E-03      0.7430035902E-03

    ------------------------------------------------
       NWT REQUIRED            4 OUTER ITERATIONS 
       AND A TOTAL OF          7 INNER ITERATIONS.
    ------------------------------------------------

 NO OUTPUT CONTROL FOR STRESS PERIOD   37   TIME STEP   27
 
 SOLVING FOR HEAD 
                                                   Max.-Head-Change                         Max.-Flux-Residual
  Residual-Control   Outer-Iter.   Inner-Iter.     Column Row Layer    Maximum-Head-Change  Column Row Layer    Maximum-Flux-Residual          L2-NORM 
          0                 1           2             4    7     1       0.1926979712E-01       4    7    1         0.1009861012E+01      0.2580700798E+01
          0                 2           2             4    7     1      -0.1873415861E-02       4    7    1        -0.1009316177E+00      0.2579799499E+00
          0                 3           2             4    7     1       0.1274764393E-03       4    7    1         0.7059870186E-02      0.1804980396E-01
          0                 4           1             4    7     1      -0.5066040619E-05       4    7    1        -0.2883856296E-03      0.7376557096E-03

    ------------------------------------------------
       NWT REQUIRED            4 OUTER ITERATIONS 
       AND A TOTAL OF          7 INNER ITERATIONS.
    ------------------------------------------------

 NO OUTPUT CONTROL FOR STRESS PERIOD   37   TIME STEP   28
 
 SOLVING FOR HEAD 
                                                   Max.-Head-Change                         Max.-Flux-Residual
  Residual-Control   Outer-Iter.   Inner-Iter.     Column Row Layer    Maximum-Head-Change  Column Row Layer    Maximum-Flux-Residual          L2-NORM 
          0                 1           2             4    7     1       0.1910557484E-01       4    7    1         0.1001221333E+01      0.2562159770E+01
          0                 2           2             4    7     1      -0.1857450033E-02       4    7    1        -0.1000681096E+00      0.2561266442E+00
          0                 3           2             4    7     1       0.1263900451E-03       4    7    1         0.6999470203E-02      0.1792015598E-01
          0                 4           1             4    7     1      -0.5022866387E-05       4    7    1        -0.2859183733E-03      0.7323502743E-03

    ------------------------------------------------
       NWT REQUIRED            4 OUTER ITERATIONS 
       AND A TOTAL OF          7 INNER ITERATIONS.
    ------------------------------------------------

 NO OUTPUT CONTROL FOR STRESS PERIOD   37   TIME STEP   29
 
 SOLVING FOR HEAD 
                                                   Max.-Head-Change                         Max.-Flux-Residual
  Residual-Control   Outer-Iter.   Inner-Iter.     Column Row Layer    Maximum-Head-Change  Column Row Layer    Maximum-Flux-Residual          L2-NORM 
          0                 1           2             4    7     1       0.1894344053E-01       4    7    1         0.9926920098E+00      0.2543853710E+01
          0                 2           2             4    7     1      -0.1841687202E-02       4    7    1        -0.9921563120E-01      0.2542968443E+00
          0                 3           2             4    7     1       0.1253174637E-03       4    7    1         0.6939841721E-02      0.1779216244E-01
          0                 4           1             4    7     1      -0.4980240623E-05       4    7    1        -0.2834826150E-03      0.7271218266E-03

    ------------------------------------------------
       NWT REQUIRED            4 OUTER ITERATIONS 
       AND A TOTAL OF          7 INNER ITERATIONS.
    ------------------------------------------------

 NO OUTPUT CONTROL FOR STRESS PERIOD   37   TIME STEP   30



 STREAM LISTING     PERIOD     37   STEP       30

 LAYER ROW COL. STREAM  RCH.  FLOW INTO     FLOW TO   FLOW OUT OF   OVRLND.     DIRECT     STREAM       STREAM     STREAM     STREAM   STREAMBED  STREAMBED
                SEG.NO.  NO.  STRM. RCH.    AQUIFER    STRM. RCH.    RUNOFF     PRECIP       ET          HEAD       DEPTH      WIDTH   CONDCTNC.   GRADIENT

   1    1    1     1     1    1.9000E+01  2.1427E-01   1.8786E+01  0.000E+00  0.000E+00  0.000E+00  1.09413E+03  1.082E+00  1.166E+01  5.249E-02  1.361E+00
   1    2    2     1     2    1.8786E+01  3.3054E-01   1.8455E+01  0.000E+00  0.000E+00  0.000E+00  1.08914E+03  1.077E+00  1.158E+01  8.107E-02  1.359E+00
   1    3    3     1     3    1.8455E+01  2.8064E-01   1.8175E+01  0.000E+00  0.000E+00  0.000E+00  1.08349E+03  1.072E+00  1.149E+01  6.892E-02  1.357E+00
   1    3    4     1     4    1.8175E+01  2.5740E-01   1.7917E+01  0.000E+00  0.000E+00  0.000E+00  1.07848E+03  1.068E+00  1.140E+01  6.328E-02  1.356E+00
   1    4    5     2     1    1.5917E+01  3.0542E-01   1.5612E+01  0.000E+00  0.000E+00  0.000E+00  1.07285E+03  9.157E-01  1.200E+01  7.800E-02  1.305E+00
   1    5    6     2     2    1.5612E+01  2.3438E-01   1.5377E+01  0.000E+00  0.000E+00  0.000E+00  1.06742E+03  9.063E-01  1.200E+01  6.000E-02  1.302E+00
   1    6    6     2     3    1.5377E+01  2.3388E-01   1.5143E+01  0.000E+00  0.000E+00  0.000E+00  1.06269E+03  8.980E-01  1.200E+01  6.000E-02  1.299E+00
   1    7    6     2     4    1.5143E+01  2.3338E-01   1.4910E+01  0.000E+00  0.000E+00  0.000E+00  1.05797E+03  8.897E-01  1.200E+01  6.000E-02  1.297E+00
   1    8    6     2     5    1.4910E+01  2.3289E-01   1.4677E+01  0.000E+00  0.000E+00  0.000E+00  1.05324E+03  8.814E-01  1.200E+01  6.000E-02  1.294E+00
   1    3    5     3     1    2.0000E+00  2.8252E-01   1.7175E+00  0.000E+00  0.000E+00  0.000E+00  1.07555E+03  1.909E+00  9.636E+00  7.227E-02  1.955E+00
   1    3    6     3     2    1.7175E+00  2.4905E-01   1.4684E+00  0.000E+00  0.000E+00  0.000E+00  1.07264E+03  1.727E+00  8.909E+00  6.682E-02  1.864E+00
   1    3    7     3     3    1.4684E+00  1.9718E-01   1.2712E+00  0.000E+00  0.000E+00  0.000E+00  1.06987E+03  1.555E+00  8.218E+00  5.547E-02  1.777E+00
   1    4    8     3     4    1.2712E+00  2.2567E-01   1.0456E+00  0.000E+00  0.000E+00  0.000E+00  1.06682E+03  1.364E+00  7.455E+00  6.709E-02  1.682E+00
   1    5    8     3     5    1.0456E+00  1.5790E-01   8.8768E-01  0.000E+00  0.000E+00  0.000E+00  1.06362E+03  1.164E+00  6.655E+00  4.991E-02  1.582E+00
   1    6    8     3     6    8.8768E-01  5.5980E-02   8.3170E-01  0.000E+00  0.000E+00  0.000E+00  1.06158E+03  1.036E+00  6.145E+00  1.844E-02  1.518E+00
   1    5   10     4     1    1.0000E+01  9.0919E-02   9.9091E+00  0.000E+00  0.000E+00  0.000E+00  1.07836E+03  6.368E-01  1.000E+01  2.500E-02  1.212E+00
   1    5    9     4     2    9.9091E+00  1.8158E-01   9.7275E+00  0.000E+00  0.000E+00  0.000E+00  1.07154E+03  6.315E-01  1.000E+01  5.000E-02  1.211E+00
   1    6    8     4     3    9.7275E+00  1.2689E-01   9.6006E+00  0.000E+00  0.000E+00  0.000E+00  1.06381E+03  6.256E-01  1.000E+01  3.500E-02  1.209E+00
   1    6    8     5     1    1.0432E+01  2.2686E-01   1.0205E+01  0.000E+00  0.000E+00  0.000E+00  1.05868E+03  6.790E-01  1.542E+01  6.166E-02  1.226E+00
   1    7    7     5     2    1.0205E+01  2.7894E-01   9.9265E+00  0.000E+00  0.000E+00  0.000E+00  1.05417E+03  6.732E-01  1.519E+01  7.594E-02  1.224E+00
   1    8    7     5     3    9.9265E+00  1.9221E-01   9.7343E+00  0.000E+00  0.000E+00  0.000E+00  1.04992E+03  6.676E-01  1.497E+01  5.241E-02  1.223E+00
   1    8    6     5     4    9.7343E+00  1.3577E-01   9.5985E+00  0.000E+00  0.000E+00  0.000E+00  1.04691E+03  6.637E-01  1.482E+01  3.706E-02  1.221E+00
   1    9    6     6     1    2.4276E+01  2.5176E-01   2.4024E+01  0.000E+00  0.000E+00  0.000E+00  1.04392E+03  1.196E+00  1.200E+01  6.000E-02  1.399E+00
   1   10    7     6     2    2.4024E+01  2.5131E-01   2.3773E+01  0.000E+00  0.000E+00  0.000E+00  1.03937E+03  1.188E+00  1.200E+01  6.000E-02  1.396E+00
   1   11    7     6     3    2.3773E+01  2.5086E-01   2.3522E+01  0.000E+00  0.000E+00  0.000E+00  1.03482E+03  1.181E+00  1.200E+01  6.000E-02  1.394E+00
   1   12    7     6     4    2.3522E+01  2.5041E-01   2.3271E+01  0.000E+00  0.000E+00  0.000E+00  1.03026E+03  1.173E+00  1.200E+01  6.000E-02  1.391E+00
   1   13    7     6     5    2.3271E+01  8.6900E-03   2.3263E+01  0.000E+00  0.000E+00  0.000E+00  1.02708E+03  1.170E+00  1.200E+01  2.400E-02  1.207E-01
   1   14    9     7     1    1.5000E+02  1.3603E+00   1.4864E+02  0.000E+00  0.000E+00  0.000E+00  1.03987E+03  2.288E+00  5.529E+01  5.593E-01  8.107E-01
   1   13    8     7     2    1.4864E+02  1.9373E+00   1.4670E+02  0.000E+00  0.000E+00  0.000E+00  1.03478E+03  2.279E+00  5.525E+01  6.148E-01  1.050E+00
   1   13    7     7     3    1.4670E+02  1.6596E+00   1.4504E+02  0.000E+00  0.000E+00  0.000E+00  1.02969E+03  2.269E+00  5.521E+01  5.584E-01  9.907E-01
   1   13    6     8     1    1.6831E+02  1.1022E+00   1.6720E+02  0.000E+00  0.000E+00  0.000E+00  1.02481E+03  2.938E+00  4.259E+01  4.340E-01  8.465E-01
   1   13    5     8     2    1.6720E+02  3.4915E-01   1.6685E+02  0.000E+00  0.000E+00  0.000E+00  1.01856E+03  2.933E+00  4.252E+01  4.333E-01  2.686E-01
   1   13    4     8     3    1.6685E+02 -1.8398E+00   1.6869E+02  0.000E+00  0.000E+00  0.000E+00  1.01231E+03  2.938E+00  4.260E+01  4.341E+00 -1.413E-01
   1   13    3     8     4    1.6869E+02 -3.3681E+00   1.7206E+02  0.000E+00  0.000E+00  0.000E+00  1.00608E+03  2.955E+00  4.284E+01  4.366E+00 -2.572E-01
   1   13    2     8     5    1.7206E+02 -2.5112E+00   1.7457E+02  0.000E+00  0.000E+00  0.000E+00  9.99849E+02  2.974E+00  4.312E+01  4.394E+00 -1.905E-01
   1   13    1     8     6    1.7457E+02 -1.9660E+00   1.7654E+02  0.000E+00  0.000E+00  0.000E+00  9.94863E+02  2.988E+00  4.333E+01  2.649E+00 -2.474E-01





UNSATURATED ZONE PACKAGE VOLUMETRIC BUDGET FOR  TIME STEP    30 STRESS PERIOD   37
  ------------------------------------------------------------------------------



     CUMULATIVE VOLUMES      L**3       RATES FOR THIS TIME STEP      L**3/T
     ------------------                 ------------------------

           IN:                                      IN:
           ---                                      ---
        INFILTRATION =  1507835771.7737          INFILTRATION =           0.8475

          OUT:                                     OUT:
          ----                                     ----
              UZF ET =  1291194771.5007                UZF ET =           0.7500
        UZF RECHARGE =   216052563.7356          UZF RECHARGE =           0.0002

            IN - OUT =      588436.5374              IN - OUT =       9.7256E-02

          STORAGE:                                 STORAGE:
          --------                                 --------
      STORAGE CHANGE =      588415.2942        STORAGE CHANGE =       9.7256E-02

 PERCENT DISCREPANCY IS DIFFERENCE BETWEEN IN-OUT MINUS CHANGE IN STORAGE
 DIVIDED BY THE AVERAGE OF IN AND OUT TIMES 100

 PERCENT DISCREPANCY =           0.00     PERCENT DISCREPANCY =           0.00






1
  VOLUMETRIC BUDGET FOR AGRICULTURAL FIELDS AT  END OF TIME STEP   30, STRESS PERIOD  37
  ------------------------------------------------------------------------------

     CUMULATIVE VOLUMES      L**3       RATES FOR THIS TIME STEP      L**3/T
     ------------------                 ------------------------

           IN:                                      IN:
           ---                                      ---
               AG WELLS  =  1427519104.0000                 AG WELLS  =           0.0000
      DIVERSION SEGMENTS =           0.0000        DIVERSION SEGMENTS =           0.0000
           GW IRRIGATION =           0.0000             GW IRRIGATION =           0.0000
           SW IRRIGATION =           0.0000             SW IRRIGATION =           0.0000
        SYSTEM LOSSES GW =           0.0000          SYSTEM LOSSES GW =           0.0000
        SYSTEM LOSSES SW =           0.0000          SYSTEM LOSSES SW =           0.0000

                TOTAL IN =  1427519104.0000                  TOTAL IN =           0.0000

          OUT:                                     OUT:
          ----                                     ----
               AG WELLS  =           0.0000                 AG WELLS  =           0.0000
      DIVERSION SEGMENTS =           0.0000        DIVERSION SEGMENTS =           0.0000
           GW IRRIGATION =  1427519104.0000             GW IRRIGATION =           0.0000
           SW IRRIGATION =           0.0000             SW IRRIGATION =           0.0000
        SYSTEM LOSSES GW =           0.0000          SYSTEM LOSSES GW =           0.0000
        SYSTEM LOSSES SW =           0.0000          SYSTEM LOSSES SW =           0.0000

               TOTAL OUT =  1427519104.0000                 TOTAL OUT =           0.0000

                IN - OUT =           0.0000                  IN - OUT =           0.0000

     PERCENT DISCREPANCY =           0.00         PERCENT DISCREPANCY =           0.00



1
  VOLUMETRIC BUDGET FOR ENTIRE MODEL AT END OF TIME STEP   30, STRESS PERIOD  37
  ------------------------------------------------------------------------------

     CUMULATIVE VOLUMES      L**3       RATES FOR THIS TIME STEP      L**3/T
     ------------------                 ------------------------

           IN:                                      IN:
           ---                                      ---
             STORAGE     =  1839477504.0000               STORAGE     =           6.8228
       CONSTANT HEAD     =           0.0000         CONSTANT HEAD     =           0.0000
     HEAD DEP BOUNDS     =    27090400.0000       HEAD DEP BOUNDS     =           0.2874
      STREAM LEAKAGE     =  1161808128.0000        STREAM LEAKAGE     =          12.1458
        UZF RECHARGE     =   216052528.0000          UZF RECHARGE     =       2.4364E-04
               GW ET     =           0.0000                 GW ET     =           0.0000
     SURFACE LEAKAGE     =           0.0000       SURFACE LEAKAGE     =           0.0000
           AG WELLS      =           0.0000             AG WELLS      =           0.0000

                TOTAL IN =  3244428544.0000                  TOTAL IN =          19.2563

          OUT:                                     OUT:
          ----                                     ----
             STORAGE     =   801668928.0000               STORAGE     =           9.2822
       CONSTANT HEAD     =           0.0000         CONSTANT HEAD     =           0.0000
     HEAD DEP BOUNDS     =    27712504.0000       HEAD DEP BOUNDS     =           0.2890
      STREAM LEAKAGE     =   969983872.0000        STREAM LEAKAGE     =           9.6850
        UZF RECHARGE     =           0.0000          UZF RECHARGE     =           0.0000
               GW ET     =    17516984.0000                 GW ET     =           0.0000
     SURFACE LEAKAGE     =           0.0000       SURFACE LEAKAGE     =           0.0000
           AG WELLS      =  1427519104.0000             AG WELLS      =           0.0000

               TOTAL OUT =  3244401408.0000                 TOTAL OUT =          19.2563

                IN - OUT =       27136.0000                  IN - OUT =       1.1444E-05

     PERCENT DISCREPANCY =           0.00         PERCENT DISCREPANCY =           0.00






         TIME SUMMARY AT END OF TIME STEP   30 IN STRESS PERIOD   37
                    SECONDS     MINUTES      HOURS       DAYS        YEARS
                    -----------------------------------------------------------
   TIME STEP LENGTH  87667.      1461.1      24.352      1.0147     2.77799E-03
 STRESS PERIOD TIME 2.63000E+06  43833.      730.56      30.440     8.33397E-02
         TOTAL TIME 9.47660E+07 1.57943E+06  26324.      1096.8      3.0030    
1
1
                            STRESS PERIOD NO.   38, LENGTH =   2630000.    
                            -----------------------------------------------

                              NUMBER OF TIME STEPS =    30

                               MULTIPLIER FOR DELT =     1.000

                            INITIAL TIME STEP SIZE =   87666.66    

 REUSING NON-PARAMETER GHB CELLS FROM LAST STRESS PERIOD

      2 GHB CELLS

 REUSING STREAM SEGMENT DATA FROM LAST STRESS PERIOD



            AREAL INFILTRATION RATE
 READING ON UNIT   19 WITH FORMAT: (FREE)              

            1           2           3           4           5           6           7           8           9          10
 ........................................................................................................................
   1   1.0000E-10  2.0000E-10   0.000       0.000       0.000       0.000       0.000       0.000       0.000       0.000    
   2   2.0000E-10  1.0000E-10  2.0000E-10   0.000       0.000      8.0000E-10  8.0000E-10  5.0000E-10   0.000       0.000    
   3    0.000      5.0000E-10  1.0000E-10  1.0000E-10  8.0000E-10  8.0000E-10  5.0000E-10  5.0000E-10   0.000       0.000    
   4   8.0000E-10  5.0000E-10  1.0000E-10  1.0000E-10  1.0000E-10  1.0000E-10  1.0000E-10  1.0000E-10  2.0000E-10   0.000    
   5   8.0000E-10  5.0000E-10  1.0000E-10  1.0000E-10  1.0000E-10  1.0000E-10  1.0000E-10  1.0000E-10  1.0000E-10  1.0000E-10
   6   8.0000E-10  5.0000E-10  5.0000E-10  2.0000E-10  2.0000E-10  1.0000E-10  1.0000E-10  1.0000E-10  1.0000E-10  5.0000E-10
   7   8.0000E-10  5.0000E-10  5.0000E-10  2.0000E-10  2.0000E-10  1.0000E-10  1.0000E-10  2.0000E-10  2.0000E-10   0.000    
   8    0.000      5.0000E-10  5.0000E-10  2.0000E-10  2.0000E-10  1.0000E-10  1.0000E-10  2.0000E-10  5.0000E-10   0.000    
   9    0.000      5.0000E-10  5.0000E-10  2.0000E-10  2.0000E-10  1.0000E-10  1.0000E-10  2.0000E-10  5.0000E-10   0.000    
  10    0.000      5.0000E-10  5.0000E-10  2.0000E-10  2.0000E-10  1.0000E-10  1.0000E-10  2.0000E-10  5.0000E-10  8.0000E-10
  11    0.000      1.0000E-10  1.0000E-10  1.0000E-10  1.0000E-10  1.0000E-10  1.0000E-10  2.0000E-10  5.0000E-10   0.000    
  12   1.0000E-10  1.0000E-10  1.0000E-10  1.0000E-10  1.0000E-10  1.0000E-10  1.0000E-10  1.0000E-10  2.0000E-10   0.000    
  13   1.0000E-10  1.0000E-10  2.0000E-10  2.0000E-10  2.0000E-10  2.0000E-10  2.0000E-10  1.0000E-10  1.0000E-10   0.000    
  14    0.000      2.0000E-10  5.0000E-10  5.0000E-10  5.0000E-10  5.0000E-10  5.0000E-10  2.0000E-10  1.0000E-10   0.000    
  15    0.000       0.000      8.0000E-10  8.0000E-10  8.0000E-10  8.0000E-10   0.000       0.000       0.000       0.000    

                  ET RATE =  5.000000E-10

 USING ET EXTINCTION DEPTH FROM PREVIOUS STRESS PERIOD. CURRENT PERIOD IS:      38

 USING EXTINCTION WATER CONTENT FROM PREVIOUS STRESS PERIOD. CURRENT PERIOD IS:      38

 USING AIR ENTRY PRESSURE FROM PREVIOUS STRESS PERIOD. CURRENT PERIOD IS:      38

 USING ROOT PRESSURE HEAD FROM PREVIOUS STRESS PERIOD. CURRENT PERIOD IS:      38

 USING ROOT ACTIVITY FROM PREVIOUS STRESS PERIOD. CURRENT PERIOD IS:      38

 PROCESSING AG STRESS PERIOD DATA

 READING AG STRESS PERIOD DATA

 READING IRRIGATION WELL

 END PROCESSING AG STRESS PERIOD DATA OPTIONS
 
 SOLVING FOR HEAD 
                                                   Max.-Head-Change                         Max.-Flux-Residual
  Residual-Control   Outer-Iter.   Inner-Iter.     Column Row Layer    Maximum-Head-Change  Column Row Layer    Maximum-Flux-Residual          L2-NORM 
          0                 1           2             4    7     1       0.1878321859E-01       4    7    1         0.9842636377E+00      0.2525773164E+01
          0                 2           2             4    7     1      -0.1826110293E-02       4    7    1        -0.9837324262E-01      0.2524895720E+00
          0                 3           2             4    7     1       0.1242575333E-03       4    7    1         0.6880918994E-02      0.1766574018E-01
          0                 4           1             4    7     1      -0.4938118082E-05       4    7    1        -0.2810756887E-03      0.7219805896E-03

    ------------------------------------------------
       NWT REQUIRED            4 OUTER ITERATIONS 
       AND A TOTAL OF          7 INNER ITERATIONS.
    ------------------------------------------------

 NO OUTPUT CONTROL FOR STRESS PERIOD   38   TIME STEP    1
 
 SOLVING FOR HEAD 
                                                   Max.-Head-Change                         Max.-Flux-Residual
  Residual-Control   Outer-Iter.   Inner-Iter.     Column Row Layer    Maximum-Head-Change  Column Row Layer    Maximum-Flux-Residual          L2-NORM 
          0                 1           2             4    7     1       0.1862500543E-01       4    7    1         0.9759417245E+00      0.2507911968E+01
          0                 2           2             4    7     1      -0.1811718366E-02       4    7    1        -0.9761642362E-01      0.2507237429E+00
          0                 3           2             4    7     1       0.1232782841E-03       4    7    1         0.6827982491E-02      0.1754218237E-01
          0                 4           1             4    7     1      -0.4899205298E-05       4    7    1        -0.2789133891E-03      0.7169120815E-03

    ------------------------------------------------
       NWT REQUIRED            4 OUTER ITERATIONS 
       AND A TOTAL OF          7 INNER ITERATIONS.
    ------------------------------------------------

 NO OUTPUT CONTROL FOR STRESS PERIOD   38   TIME STEP    2
 
 SOLVING FOR HEAD 
                                                   Max.-Head-Change                         Max.-Flux-Residual
  Residual-Control   Outer-Iter.   Inner-Iter.     Column Row Layer    Maximum-Head-Change  Column Row Layer    Maximum-Flux-Residual          L2-NORM 
          0                 1           2             4    7     1       0.1846430895E-01       4    7    1         0.9676639059E+00      0.2490264937E+01
          0                 2           2             4    7     1      -0.1795106515E-02       4    7    1        -0.9671418720E-01      0.2489403094E+00
          0                 3           2             4    7     1       0.1221479283E-03       4    7    1         0.6764873374E-02      0.1741744885E-01
          0                 4           1             4    7     1      -0.4854283430E-05       4    7    1        -0.2763354455E-03      0.7118151593E-03

    ------------------------------------------------
       NWT REQUIRED            4 OUTER ITERATIONS 
       AND A TOTAL OF          7 INNER ITERATIONS.
    ------------------------------------------------

 NO OUTPUT CONTROL FOR STRESS PERIOD   38   TIME STEP    3
 
 SOLVING FOR HEAD 
                                                   Max.-Head-Change                         Max.-Flux-Residual
  Residual-Control   Outer-Iter.   Inner-Iter.     Column Row Layer    Maximum-Head-Change  Column Row Layer    Maximum-Flux-Residual          L2-NORM 
          0                 1           2             4    7     1       0.1830682913E-01       4    7    1         0.9593700902E+00      0.2472802680E+01
          0                 2           2             4    7     1      -0.1779796173E-02       4    7    1        -0.9588524554E-01      0.2471948492E+00
          0                 3           2             4    7     1       0.1211061358E-03       4    7    1         0.6706891189E-02      0.1729532111E-01
          0                 4           1             4    7     1      -0.4812881127E-05       4    7    1        -0.2739669249E-03      0.7068244762E-03

    ------------------------------------------------
       NWT REQUIRED            4 OUTER ITERATIONS 
       AND A TOTAL OF          7 INNER ITERATIONS.
    ------------------------------------------------

 NO OUTPUT CONTROL FOR STRESS PERIOD   38   TIME STEP    4
 
 SOLVING FOR HEAD 
                                                   Max.-Head-Change                         Max.-Flux-Residual
  Residual-Control   Outer-Iter.   Inner-Iter.     Column Row Layer    Maximum-Head-Change  Column Row Layer    Maximum-Flux-Residual          L2-NORM 
          0                 1           2             4    7     1       0.1815149426E-01       4    7    1         0.9511903490E+00      0.2455554699E+01
          0                 2           2             4    7     1      -0.1764694369E-02       4    7    1        -0.9506770545E-01      0.2454708039E+00
          0                 3           2             4    7     1       0.1200785333E-03       4    7    1         0.6649706484E-02      0.1717470577E-01
          0                 4           1             4    7     1      -0.4772043295E-05       4    7    1        -0.2716310137E-03      0.7018768002E-03

    ------------------------------------------------
       NWT REQUIRED            4 OUTER ITERATIONS 
       AND A TOTAL OF          7 INNER ITERATIONS.
    ------------------------------------------------

 NO OUTPUT CONTROL FOR STRESS PERIOD   38   TIME STEP    5
 
 SOLVING FOR HEAD 
                                                   Max.-Head-Change                         Max.-Flux-Residual
  Residual-Control   Outer-Iter.   Inner-Iter.     Column Row Layer    Maximum-Head-Change  Column Row Layer    Maximum-Flux-Residual          L2-NORM 
          0                 1           2             4    7     1       0.1799812544E-01       4    7    1         0.9431145122E+00      0.2438520735E+01
          0                 2           2             4    7     1      -0.1749783706E-02       4    7    1        -0.9426055042E-01      0.2437681535E+00
          0                 3           2             4    7     1       0.1190639369E-03       4    7    1         0.6593248204E-02      0.1705558680E-01
          0                 4           1             4    7     1      -0.4731721925E-05       4    7    1        -0.2693247466E-03      0.6970242207E-03

    ------------------------------------------------
       NWT REQUIRED            4 OUTER ITERATIONS 
       AND A TOTAL OF          7 INNER ITERATIONS.
    ------------------------------------------------

 NO OUTPUT CONTROL FOR STRESS PERIOD   38   TIME STEP    6
 
 SOLVING FOR HEAD 
                                                   Max.-Head-Change                         Max.-Flux-Residual
  Residual-Control   Outer-Iter.   Inner-Iter.     Column Row Layer    Maximum-Head-Change  Column Row Layer    Maximum-Flux-Residual          L2-NORM 
          0                 1           2             4    7     1       0.1784680769E-01       4    7    1         0.9351479189E+00      0.2421695127E+01
          0                 2           2             4    7     1      -0.1735072455E-02       4    7    1        -0.9346431414E-01      0.2420863275E+00
          0                 3           2             4    7     1       0.1180629100E-03       4    7    1         0.6537553677E-02      0.1693791879E-01
          0                 4           1             4    7     1      -0.4691940159E-05       4    7    1        -0.2670497106E-03      0.6921947395E-03

    ------------------------------------------------
       NWT REQUIRED            4 OUTER ITERATIONS 
       AND A TOTAL OF          7 INNER ITERATIONS.
    ------------------------------------------------

 NO OUTPUT CONTROL FOR STRESS PERIOD   38   TIME STEP    7
 
 SOLVING FOR HEAD 
                                                   Max.-Head-Change                         Max.-Flux-Residual
  Residual-Control   Outer-Iter.   Inner-Iter.     Column Row Layer    Maximum-Head-Change  Column Row Layer    Maximum-Flux-Residual          L2-NORM 
          0                 1           2             4    7     1       0.1769749322E-01       4    7    1         0.9272876706E+00      0.2405071986E+01
          0                 2           2             4    7     1      -0.1720555966E-02       4    7    1        -0.9267870684E-01      0.2404247612E+00
          0                 3           2             4    7     1       0.1170751353E-03       4    7    1         0.6482602611E-02      0.1682170991E-01
          0                 4           1             4    7     1      -0.4652684755E-05       4    7    1        -0.2648050131E-03      0.6874575820E-03

    ------------------------------------------------
       NWT REQUIRED            4 OUTER ITERATIONS 
       AND A TOTAL OF          7 INNER ITERATIONS.
    ------------------------------------------------

 NO OUTPUT CONTROL FOR STRESS PERIOD   38   TIME STEP    8
 
 SOLVING FOR HEAD 
                                                   Max.-Head-Change                         Max.-Flux-Residual
  Residual-Control   Outer-Iter.   Inner-Iter.     Column Row Layer    Maximum-Head-Change  Column Row Layer    Maximum-Flux-Residual          L2-NORM 
          0                 1           2             4    7     1       0.1755013822E-01       4    7    1         0.9195312888E+00      0.2388656147E+01
          0                 2           2             4    7     1      -0.1706229979E-02       4    7    1        -0.9190348082E-01      0.2387839040E+00
          0                 3           1             4    7     1       0.1161003273E-03       4    7    1         0.6428377689E-02      0.1670690918E-01
          0                 4           1             4    7     1      -0.4613948693E-05       4    7    1        -0.2625900047E-03      0.6827724231E-03

    ------------------------------------------------
       NWT REQUIRED            4 OUTER ITERATIONS 
       AND A TOTAL OF          6 INNER ITERATIONS.
    ------------------------------------------------

 NO OUTPUT CONTROL FOR STRESS PERIOD   38   TIME STEP    9
 
 SOLVING FOR HEAD 
                                                   Max.-Head-Change                         Max.-Flux-Residual
  Residual-Control   Outer-Iter.   Inner-Iter.     Column Row Layer    Maximum-Head-Change  Column Row Layer    Maximum-Flux-Residual          L2-NORM 
          0                 1           2             4    7     1       0.1740456743E-01       4    7    1         0.9118691924E+00      0.2372444407E+01
          0                 2           2             4    7     1      -0.1692077458E-02       4    7    1        -0.9113767845E-01      0.2371634224E+00
          0                 3           1             4    7     1       0.1151373188E-03       4    7    1         0.6374811933E-02      0.1659354175E-01
          0                 4           1             4    7     1      -0.4575677400E-05       4    7    1        -0.2604018982E-03      0.6781395126E-03

    ------------------------------------------------
       NWT REQUIRED            4 OUTER ITERATIONS 
       AND A TOTAL OF          6 INNER ITERATIONS.
    ------------------------------------------------

 NO OUTPUT CONTROL FOR STRESS PERIOD   38   TIME STEP   10
 
 SOLVING FOR HEAD 
                                                   Max.-Head-Change                         Max.-Flux-Residual
  Residual-Control   Outer-Iter.   Inner-Iter.     Column Row Layer    Maximum-Head-Change  Column Row Layer    Maximum-Flux-Residual          L2-NORM 
          0                 1           2             4    7     1       0.1726087523E-01       4    7    1         0.9043069134E+00      0.2356422185E+01
          0                 2           2             4    7     1      -0.1678107576E-02       4    7    1        -0.9038185267E-01      0.2355619145E+00
          0                 3           1             4    7     1       0.1141867381E-03       4    7    1         0.6321944001E-02      0.1648150638E-01
          0                 4           1             4    7     1      -0.4537900235E-05       4    7    1        -0.2582423094E-03      0.6735627778E-03

    ------------------------------------------------
       NWT REQUIRED            4 OUTER ITERATIONS 
       AND A TOTAL OF          6 INNER ITERATIONS.
    ------------------------------------------------

 NO OUTPUT CONTROL FOR STRESS PERIOD   38   TIME STEP   11
 
 SOLVING FOR HEAD 
                                                   Max.-Head-Change                         Max.-Flux-Residual
  Residual-Control   Outer-Iter.   Inner-Iter.     Column Row Layer    Maximum-Head-Change  Column Row Layer    Maximum-Flux-Residual          L2-NORM 
          0                 1           2             4    7     1       0.1711902019E-01       4    7    1         0.8968420362E+00      0.2340587780E+01
          0                 2           2             4    7     1      -0.1664316307E-02       4    7    1        -0.8963576201E-01      0.2339791690E+00
          0                 3           1             4    7     1       0.1132483107E-03       4    7    1         0.6269757026E-02      0.1637079250E-01
          0                 4           1             4    7     1      -0.4500605800E-05       4    7    1        -0.2561105052E-03      0.6690430068E-03

    ------------------------------------------------
       NWT REQUIRED            4 OUTER ITERATIONS 
       AND A TOTAL OF          6 INNER ITERATIONS.
    ------------------------------------------------

 NO OUTPUT CONTROL FOR STRESS PERIOD   38   TIME STEP   12
 
 SOLVING FOR HEAD 
                                                   Max.-Head-Change                         Max.-Flux-Residual
  Residual-Control   Outer-Iter.   Inner-Iter.     Column Row Layer    Maximum-Head-Change  Column Row Layer    Maximum-Flux-Residual          L2-NORM 
          0                 1           2             4    7     1       0.1697896683E-01       4    7    1         0.8894724125E+00      0.2324948400E+01
          0                 2           2             4    7     1      -0.1650700199E-02       4    7    1        -0.8889919176E-01      0.2324159387E+00
          0                 3           1             4    7     1       0.1123218028E-03       4    7    1         0.6218235969E-02      0.1626143780E-01
          0                 4           1             4    7     1      -0.4463785576E-05       4    7    1        -0.2540059486E-03      0.6645745804E-03

    ------------------------------------------------
       NWT REQUIRED            4 OUTER ITERATIONS 
       AND A TOTAL OF          6 INNER ITERATIONS.
    ------------------------------------------------

 NO OUTPUT CONTROL FOR STRESS PERIOD   38   TIME STEP   13
 
 SOLVING FOR HEAD 
                                                   Max.-Head-Change                         Max.-Flux-Residual
  Residual-Control   Outer-Iter.   Inner-Iter.     Column Row Layer    Maximum-Head-Change  Column Row Layer    Maximum-Flux-Residual          L2-NORM 
          0                 1           2             4    7     1       0.1684067357E-01       4    7    1         0.8821962025E+00      0.2309493157E+01
          0                 2           2             4    7     1      -0.1637255213E-02       4    7    1        -0.8817195802E-01      0.2308711030E+00
          0                 3           1             4    7     1       0.1114069388E-03       4    7    1         0.6167368006E-02      0.1615334454E-01
          0                 4           1             4    7     1      -0.4427427934E-05       4    7    1        -0.2519280520E-03      0.6601532871E-03

    ------------------------------------------------
       NWT REQUIRED            4 OUTER ITERATIONS 
       AND A TOTAL OF          6 INNER ITERATIONS.
    ------------------------------------------------

 NO OUTPUT CONTROL FOR STRESS PERIOD   38   TIME STEP   14
 
 SOLVING FOR HEAD 
                                                   Max.-Head-Change                         Max.-Flux-Residual
  Residual-Control   Outer-Iter.   Inner-Iter.     Column Row Layer    Maximum-Head-Change  Column Row Layer    Maximum-Flux-Residual          L2-NORM 
          0                 1           2             4    7     1       0.1670410509E-01       4    7    1         0.8750112509E+00      0.2294225083E+01
          0                 2           2             4    7     1      -0.1623977912E-02       4    7    1        -0.8745384538E-01      0.2293449629E+00
          0                 3           1             4    7     1       0.1105034847E-03       4    7    1         0.6117138017E-02      0.1604660124E-01
          0                 4           1             4    7     1      -0.4391523320E-05       4    7    1        -0.2498762137E-03      0.6557987254E-03

    ------------------------------------------------
       NWT REQUIRED            4 OUTER ITERATIONS 
       AND A TOTAL OF          6 INNER ITERATIONS.
    ------------------------------------------------

 NO OUTPUT CONTROL FOR STRESS PERIOD   38   TIME STEP   15
 
 SOLVING FOR HEAD 
                                                   Max.-Head-Change                         Max.-Flux-Residual
  Residual-Control   Outer-Iter.   Inner-Iter.     Column Row Layer    Maximum-Head-Change  Column Row Layer    Maximum-Flux-Residual          L2-NORM 
          0                 1           2             4    7     1       0.1656922663E-01       4    7    1         0.8679157260E+00      0.2279132571E+01
          0                 2           2             4    7     1      -0.1610864919E-02       4    7    1        -0.8674467076E-01      0.2278363847E+00
          0                 3           1             4    7     1       0.1096112115E-03       4    7    1         0.6067533227E-02      0.1594108280E-01
          0                 4           1             4    7     1      -0.4356063559E-05       4    7    1        -0.2478499323E-03      0.6515060111E-03

    ------------------------------------------------
       NWT REQUIRED            4 OUTER ITERATIONS 
       AND A TOTAL OF          6 INNER ITERATIONS.
    ------------------------------------------------

 NO OUTPUT CONTROL FOR STRESS PERIOD   38   TIME STEP   16
 
 SOLVING FOR HEAD 
                                                   Max.-Head-Change                         Max.-Flux-Residual
  Residual-Control   Outer-Iter.   Inner-Iter.     Column Row Layer    Maximum-Head-Change  Column Row Layer    Maximum-Flux-Residual          L2-NORM 
          0                 1           2             4    7     1       0.1643600523E-01       4    7    1         0.8609078261E+00      0.2264225838E+01
          0                 2           2             4    7     1      -0.1597913026E-02       4    7    1        -0.8604425407E-01      0.2263463694E+00
          0                 3           1             4    7     1       0.1087298997E-03       4    7    1         0.6018541016E-02      0.1583682076E-01
          0                 4           1             4    7     1      -0.4321039325E-05       4    7    1        -0.2458486606E-03      0.6472242026E-03

    ------------------------------------------------
       NWT REQUIRED            4 OUTER ITERATIONS 
       AND A TOTAL OF          6 INNER ITERATIONS.
    ------------------------------------------------

 NO OUTPUT CONTROL FOR STRESS PERIOD   38   TIME STEP   17
 
 SOLVING FOR HEAD 
                                                   Max.-Head-Change                         Max.-Flux-Residual
  Residual-Control   Outer-Iter.   Inner-Iter.     Column Row Layer    Maximum-Head-Change  Column Row Layer    Maximum-Flux-Residual          L2-NORM 
          0                 1           2             4    7     1       0.1630440868E-01       4    7    1         0.8539858413E+00      0.2249490416E+01
          0                 2           2             4    7     1      -0.1585119105E-02       4    7    1        -0.8535242441E-01      0.2248734801E+00
          0                 3           1             4    7     1       0.1078593376E-03       4    7    1         0.5970149474E-02      0.1573377408E-01
          0                 4           1             4    7     1      -0.4286441984E-05       4    7    1        -0.2438719239E-03      0.6430081439E-03

    ------------------------------------------------
       NWT REQUIRED            4 OUTER ITERATIONS 
       AND A TOTAL OF          6 INNER ITERATIONS.
    ------------------------------------------------

 NO OUTPUT CONTROL FOR STRESS PERIOD   38   TIME STEP   18
 
 SOLVING FOR HEAD 
                                                   Max.-Head-Change                         Max.-Flux-Residual
  Residual-Control   Outer-Iter.   Inner-Iter.     Column Row Layer    Maximum-Head-Change  Column Row Layer    Maximum-Flux-Residual          L2-NORM 
          0                 1           2             4    7     1       0.1617427026E-01       4    7    1         0.8471407904E+00      0.2234923671E+01
          0                 2           2             4    7     1      -0.1572466944E-02       4    7    1        -0.8466828412E-01      0.2234174468E+00
          0                 3           1             4    7     1       0.1069984213E-03       4    7    1         0.5922295766E-02      0.1563192446E-01
          0                 4           1             4    7     1      -0.4252228364E-05       4    7    1        -0.2419171542E-03      0.6388516906E-03

    ------------------------------------------------
       NWT REQUIRED            4 OUTER ITERATIONS 
       AND A TOTAL OF          6 INNER ITERATIONS.
    ------------------------------------------------

 NO OUTPUT CONTROL FOR STRESS PERIOD   38   TIME STEP   19
 
 SOLVING FOR HEAD 
                                                   Max.-Head-Change                         Max.-Flux-Residual
  Residual-Control   Outer-Iter.   Inner-Iter.     Column Row Layer    Maximum-Head-Change  Column Row Layer    Maximum-Flux-Residual          L2-NORM 
          0                 1           2             4    7     1       0.1604583567E-01       4    7    1         0.8403859643E+00      0.2220533941E+01
          0                 2           2             4    7     1      -0.1559980434E-02       4    7    1        -0.8399316161E-01      0.2219791279E+00
          0                 3           1             4    7     1       0.1061487771E-03       4    7    1         0.5875072847E-02      0.1553131283E-01
          0                 4           1             4    7     1      -0.4218462475E-05       4    7    1        -0.2399881614E-03      0.6347476586E-03

    ------------------------------------------------
       NWT REQUIRED            4 OUTER ITERATIONS 
       AND A TOTAL OF          6 INNER ITERATIONS.
    ------------------------------------------------

 NO OUTPUT CONTROL FOR STRESS PERIOD   38   TIME STEP   20
 
 SOLVING FOR HEAD 
                                                   Max.-Head-Change                         Max.-Flux-Residual
  Residual-Control   Outer-Iter.   Inner-Iter.     Column Row Layer    Maximum-Head-Change  Column Row Layer    Maximum-Flux-Residual          L2-NORM 
          0                 1           2             4    7     1       0.1591893171E-01       4    7    1         0.8337121674E+00      0.2206305600E+01
          0                 2           2             4    7     1      -0.1547642734E-02       4    7    1        -0.8332613779E-01      0.2205569334E+00
          0                 3           1             4    7     1       0.1053092581E-03       4    7    1         0.5828416374E-02      0.1543182480E-01
          0                 4           1             4    7     1      -0.4185098957E-05       4    7    1        -0.2380822998E-03      0.6306752371E-03

    ------------------------------------------------
       NWT REQUIRED            4 OUTER ITERATIONS 
       AND A TOTAL OF          6 INNER ITERATIONS.
    ------------------------------------------------

 NO OUTPUT CONTROL FOR STRESS PERIOD   38   TIME STEP   21
 
 SOLVING FOR HEAD 
                                                   Max.-Head-Change                         Max.-Flux-Residual
  Residual-Control   Outer-Iter.   Inner-Iter.     Column Row Layer    Maximum-Head-Change  Column Row Layer    Maximum-Flux-Residual          L2-NORM 
          0                 1           2             4    7     1       0.1579366706E-01       4    7    1         0.8271250435E+00      0.2192247305E+01
          0                 2           2             4    7     1      -0.1535464409E-02       4    7    1        -0.8266777675E-01      0.2191517194E+00
          0                 3           1             4    7     1       0.1044805844E-03       4    7    1         0.5782365870E-02      0.1533353579E-01
          0                 4           1             4    7     1      -0.4152166822E-05       4    7    1        -0.2362012024E-03      0.6266987071E-03

    ------------------------------------------------
       NWT REQUIRED            4 OUTER ITERATIONS 
       AND A TOTAL OF          6 INNER ITERATIONS.
    ------------------------------------------------

 NO OUTPUT CONTROL FOR STRESS PERIOD   38   TIME STEP   22
 
 SOLVING FOR HEAD 
                                                   Max.-Head-Change                         Max.-Flux-Residual
  Residual-Control   Outer-Iter.   Inner-Iter.     Column Row Layer    Maximum-Head-Change  Column Row Layer    Maximum-Flux-Residual          L2-NORM 
          0                 1           2             4    7     1       0.1566973835E-01       4    7    1         0.8206082894E+00      0.2178344493E+01
          0                 2           2             4    7     1      -0.1523415967E-02       4    7    1        -0.8201644900E-01      0.2177620605E+00
          0                 3           1             4    7     1       0.1036607480E-03       4    7    1         0.5736807314E-02      0.1523629443E-01
          0                 4           1             4    7     1      -0.4119585596E-05       4    7    1        -0.2343401861E-03      0.6226837319E-03

    ------------------------------------------------
       NWT REQUIRED            4 OUTER ITERATIONS 
       AND A TOTAL OF          6 INNER ITERATIONS.
    ------------------------------------------------

 NO OUTPUT CONTROL FOR STRESS PERIOD   38   TIME STEP   23
 
 SOLVING FOR HEAD 
                                                   Max.-Head-Change                         Max.-Flux-Residual
  Residual-Control   Outer-Iter.   Inner-Iter.     Column Row Layer    Maximum-Head-Change  Column Row Layer    Maximum-Flux-Residual          L2-NORM 
          0                 1           2             4    7     1       0.1554725785E-01       4    7    1         0.8141681143E+00      0.2164600398E+01
          0                 2           2             4    7     1      -0.1511508322E-02       4    7    1        -0.8137277515E-01      0.2163882563E+00
          0                 3           1             4    7     1       0.1028504925E-03       4    7    1         0.5691784122E-02      0.1514019266E-01
          0                 4           1             4    7     1      -0.4087385097E-05       4    7    1        -0.2325010487E-03      0.6187595697E-03

    ------------------------------------------------
       NWT REQUIRED            4 OUTER ITERATIONS 
       AND A TOTAL OF          6 INNER ITERATIONS.
    ------------------------------------------------

 NO OUTPUT CONTROL FOR STRESS PERIOD   38   TIME STEP   24
 
 SOLVING FOR HEAD 
                                                   Max.-Head-Change                         Max.-Flux-Residual
  Residual-Control   Outer-Iter.   Inner-Iter.     Column Row Layer    Maximum-Head-Change  Column Row Layer    Maximum-Flux-Residual          L2-NORM 
          0                 1           2             4    7     1       0.1542633308E-01       4    7    1         0.8078103392E+00      0.2151017308E+01
          0                 2           2             4    7     1      -0.1499751928E-02       4    7    1        -0.8073733701E-01      0.2150305599E+00
          0                 3           1             4    7     1       0.1020505291E-03       4    7    1         0.5647337018E-02      0.1504521311E-01
          0                 4           1             4    7     1      -0.4055593761E-05       4    7    1        -0.2306854549E-03      0.6148742355E-03

    ------------------------------------------------
       NWT REQUIRED            4 OUTER ITERATIONS 
       AND A TOTAL OF          6 INNER ITERATIONS.
    ------------------------------------------------

 NO OUTPUT CONTROL FOR STRESS PERIOD   38   TIME STEP   25
 
 SOLVING FOR HEAD 
                                                   Max.-Head-Change                         Max.-Flux-Residual
  Residual-Control   Outer-Iter.   Inner-Iter.     Column Row Layer    Maximum-Head-Change  Column Row Layer    Maximum-Flux-Residual          L2-NORM 
          0                 1           2             4    7     1       0.1530680170E-01       4    7    1         0.8015259133E+00      0.2137591437E+01
          0                 2           2             4    7     1      -0.1488131000E-02       4    7    1        -0.8010922992E-01      0.2136885849E+00
          0                 3           1             4    7     1       0.1012597822E-03       4    7    1         0.5603402659E-02      0.1495135697E-01
          0                 4           1             4    7     1      -0.4024168186E-05       4    7    1        -0.2288907626E-03      0.6110553249E-03

    ------------------------------------------------
       NWT REQUIRED            4 OUTER ITERATIONS 
       AND A TOTAL OF          6 INNER ITERATIONS.
    ------------------------------------------------

 NO OUTPUT CONTROL FOR STRESS PERIOD   38   TIME STEP   26
 
 SOLVING FOR HEAD 
                                                   Max.-Head-Change                         Max.-Flux-Residual
  Residual-Control   Outer-Iter.   Inner-Iter.     Column Row Layer    Maximum-Head-Change  Column Row Layer    Maximum-Flux-Residual          L2-NORM 
          0                 1           2             4    7     1       0.1518863974E-01       4    7    1         0.7953137316E+00      0.2124315036E+01
          0                 2           2             4    7     1      -0.1476643210E-02       4    7    1        -0.7948834347E-01      0.2123615242E+00
          0                 3           1             4    7     1       0.1004780959E-03       4    7    1         0.5559973402E-02      0.1485848607E-01
          0                 4           1             4    7     1      -0.3993103306E-05       4    7    1        -0.2271167446E-03      0.6072462962E-03

    ------------------------------------------------
       NWT REQUIRED            4 OUTER ITERATIONS 
       AND A TOTAL OF          6 INNER ITERATIONS.
    ------------------------------------------------

 NO OUTPUT CONTROL FOR STRESS PERIOD   38   TIME STEP   27
 
 SOLVING FOR HEAD 
                                                   Max.-Head-Change                         Max.-Flux-Residual
  Residual-Control   Outer-Iter.   Inner-Iter.     Column Row Layer    Maximum-Head-Change  Column Row Layer    Maximum-Flux-Residual          L2-NORM 
          0                 1           2             4    7     1       0.1507182130E-01       4    7    1         0.7891725523E+00      0.2111188238E+01
          0                 2           2             4    7     1      -0.1465286038E-02       4    7    1        -0.7887455353E-01      0.2110494184E+00
          0                 3           1             4    7     1       0.9970529771E-04       4    7    1         0.5517040541E-02      0.1476670641E-01

    ------------------------------------------------
       NWT REQUIRED            3 OUTER ITERATIONS 
       AND A TOTAL OF          5 INNER ITERATIONS.
    ------------------------------------------------

 NO OUTPUT CONTROL FOR STRESS PERIOD   38   TIME STEP   28
 
 SOLVING FOR HEAD 
                                                   Max.-Head-Change                         Max.-Flux-Residual
  Residual-Control   Outer-Iter.   Inner-Iter.     Column Row Layer    Maximum-Head-Change  Column Row Layer    Maximum-Flux-Residual          L2-NORM 
          0                 1           2             4    7     1       0.1495628018E-01       4    7    1         0.7830988049E+00      0.2098201522E+01
          0                 2           2             4    7     1      -0.1454053050E-02       4    7    1        -0.7826750326E-01      0.2097513029E+00
          0                 3           1             4    7     1       0.9894094896E-04       4    7    1         0.5474579072E-02      0.1467589750E-01

    ------------------------------------------------
       NWT REQUIRED            3 OUTER ITERATIONS 
       AND A TOTAL OF          5 INNER ITERATIONS.
    ------------------------------------------------

 NO OUTPUT CONTROL FOR STRESS PERIOD   38   TIME STEP   29
 
 SOLVING FOR HEAD 
                                                   Max.-Head-Change                         Max.-Flux-Residual
  Residual-Control   Outer-Iter.   Inner-Iter.     Column Row Layer    Maximum-Head-Change  Column Row Layer    Maximum-Flux-Residual          L2-NORM 
          0                 1           2             4    7     1       0.1484217186E-01       4    7    1         0.7771008498E+00      0.2085363481E+01
          0                 2           2             4    7     1      -0.1442959360E-02       4    7    1        -0.7766802826E-01      0.2084681134E+00
          0                 3           1             4    7     1       0.9818607896E-04       4    7    1         0.5432647471E-02      0.1458613118E-01

    ------------------------------------------------
       NWT REQUIRED            3 OUTER ITERATIONS 
       AND A TOTAL OF          5 INNER ITERATIONS.
    ------------------------------------------------

 NO OUTPUT CONTROL FOR STRESS PERIOD   38   TIME STEP   30



 STREAM LISTING     PERIOD     38   STEP       30

 LAYER ROW COL. STREAM  RCH.  FLOW INTO     FLOW TO   FLOW OUT OF   OVRLND.     DIRECT     STREAM       STREAM     STREAM     STREAM   STREAMBED  STREAMBED
                SEG.NO.  NO.  STRM. RCH.    AQUIFER    STRM. RCH.    RUNOFF     PRECIP       ET          HEAD       DEPTH      WIDTH   CONDCTNC.   GRADIENT

   1    1    1     1     1    1.9000E+01  2.1427E-01   1.8786E+01  0.000E+00  0.000E+00  0.000E+00  1.09413E+03  1.082E+00  1.166E+01  5.249E-02  1.361E+00
   1    2    2     1     2    1.8786E+01  3.3054E-01   1.8455E+01  0.000E+00  0.000E+00  0.000E+00  1.08914E+03  1.077E+00  1.158E+01  8.107E-02  1.359E+00
   1    3    3     1     3    1.8455E+01  2.8064E-01   1.8175E+01  0.000E+00  0.000E+00  0.000E+00  1.08349E+03  1.072E+00  1.149E+01  6.892E-02  1.357E+00
   1    3    4     1     4    1.8175E+01  2.5740E-01   1.7917E+01  0.000E+00  0.000E+00  0.000E+00  1.07848E+03  1.068E+00  1.140E+01  6.328E-02  1.356E+00
   1    4    5     2     1    1.5917E+01  3.0542E-01   1.5612E+01  0.000E+00  0.000E+00  0.000E+00  1.07285E+03  9.157E-01  1.200E+01  7.800E-02  1.305E+00
   1    5    6     2     2    1.5612E+01  2.3438E-01   1.5377E+01  0.000E+00  0.000E+00  0.000E+00  1.06742E+03  9.063E-01  1.200E+01  6.000E-02  1.302E+00
   1    6    6     2     3    1.5377E+01  2.3388E-01   1.5143E+01  0.000E+00  0.000E+00  0.000E+00  1.06269E+03  8.980E-01  1.200E+01  6.000E-02  1.299E+00
   1    7    6     2     4    1.5143E+01  2.3338E-01   1.4910E+01  0.000E+00  0.000E+00  0.000E+00  1.05797E+03  8.897E-01  1.200E+01  6.000E-02  1.297E+00
   1    8    6     2     5    1.4910E+01  2.3289E-01   1.4677E+01  0.000E+00  0.000E+00  0.000E+00  1.05324E+03  8.814E-01  1.200E+01  6.000E-02  1.294E+00
   1    3    5     3     1    2.0000E+00  2.8252E-01   1.7175E+00  0.000E+00  0.000E+00  0.000E+00  1.07555E+03  1.909E+00  9.636E+00  7.227E-02  1.955E+00
   1    3    6     3     2    1.7175E+00  2.4905E-01   1.4684E+00  0.000E+00  0.000E+00  0.000E+00  1.07264E+03  1.727E+00  8.909E+00  6.682E-02  1.864E+00
   1    3    7     3     3    1.4684E+00  1.9718E-01   1.2712E+00  0.000E+00  0.000E+00  0.000E+00  1.06987E+03  1.555E+00  8.218E+00  5.547E-02  1.777E+00
   1    4    8     3     4    1.2712E+00  2.2567E-01   1.0456E+00  0.000E+00  0.000E+00  0.000E+00  1.06682E+03  1.364E+00  7.455E+00  6.709E-02  1.682E+00
   1    5    8     3     5    1.0456E+00  1.5790E-01   8.8768E-01  0.000E+00  0.000E+00  0.000E+00  1.06362E+03  1.164E+00  6.655E+00  4.991E-02  1.582E+00
   1    6    8     3     6    8.8768E-01  5.5980E-02   8.3170E-01  0.000E+00  0.000E+00  0.000E+00  1.06158E+03  1.036E+00  6.145E+00  1.844E-02  1.518E+00
   1    5   10     4     1    1.0000E+01  9.0919E-02   9.9091E+00  0.000E+00  0.000E+00  0.000E+00  1.07836E+03  6.368E-01  1.000E+01  2.500E-02  1.212E+00
   1    5    9     4     2    9.9091E+00  1.8158E-01   9.7275E+00  0.000E+00  0.000E+00  0.000E+00  1.07154E+03  6.315E-01  1.000E+01  5.000E-02  1.211E+00
   1    6    8     4     3    9.7275E+00  1.2689E-01   9.6006E+00  0.000E+00  0.000E+00  0.000E+00  1.06381E+03  6.256E-01  1.000E+01  3.500E-02  1.209E+00
   1    6    8     5     1    1.0432E+01  2.2686E-01   1.0205E+01  0.000E+00  0.000E+00  0.000E+00  1.05868E+03  6.790E-01  1.542E+01  6.166E-02  1.226E+00
   1    7    7     5     2    1.0205E+01  2.7894E-01   9.9265E+00  0.000E+00  0.000E+00  0.000E+00  1.05417E+03  6.732E-01  1.519E+01  7.594E-02  1.224E+00
   1    8    7     5     3    9.9265E+00  1.9221E-01   9.7343E+00  0.000E+00  0.000E+00  0.000E+00  1.04992E+03  6.676E-01  1.497E+01  5.241E-02  1.223E+00
   1    8    6     5     4    9.7343E+00  1.3577E-01   9.5985E+00  0.000E+00  0.000E+00  0.000E+00  1.04691E+03  6.637E-01  1.482E+01  3.706E-02  1.221E+00
   1    9    6     6     1    2.4276E+01  2.5176E-01   2.4024E+01  0.000E+00  0.000E+00  0.000E+00  1.04392E+03  1.196E+00  1.200E+01  6.000E-02  1.399E+00
   1   10    7     6     2    2.4024E+01  2.5131E-01   2.3773E+01  0.000E+00  0.000E+00  0.000E+00  1.03937E+03  1.188E+00  1.200E+01  6.000E-02  1.396E+00
   1   11    7     6     3    2.3773E+01  2.5086E-01   2.3522E+01  0.000E+00  0.000E+00  0.000E+00  1.03482E+03  1.181E+00  1.200E+01  6.000E-02  1.394E+00
   1   12    7     6     4    2.3522E+01  2.5041E-01   2.3271E+01  0.000E+00  0.000E+00  0.000E+00  1.03026E+03  1.173E+00  1.200E+01  6.000E-02  1.391E+00
   1   13    7     6     5    2.3271E+01  9.2689E-03   2.3262E+01  0.000E+00  0.000E+00  0.000E+00  1.02708E+03  1.170E+00  1.200E+01  2.400E-02  1.287E-01
   1   14    9     7     1    1.5000E+02  1.3622E+00   1.4864E+02  0.000E+00  0.000E+00  0.000E+00  1.03987E+03  2.288E+00  5.529E+01  5.593E-01  8.119E-01
   1   13    8     7     2    1.4864E+02  1.9440E+00   1.4669E+02  0.000E+00  0.000E+00  0.000E+00  1.03478E+03  2.279E+00  5.525E+01  6.148E-01  1.054E+00
   1   13    7     7     3    1.4669E+02  1.6730E+00   1.4502E+02  0.000E+00  0.000E+00  0.000E+00  1.02969E+03  2.269E+00  5.521E+01  5.584E-01  9.987E-01
   1   13    6     8     1    1.6828E+02  1.1151E+00   1.6717E+02  0.000E+00  0.000E+00  0.000E+00  1.02481E+03  2.937E+00  4.259E+01  4.340E-01  8.564E-01
   1   13    5     8     2    1.6717E+02  3.6049E-01   1.6681E+02  0.000E+00  0.000E+00  0.000E+00  1.01856E+03  2.932E+00  4.252E+01  4.333E-01  2.773E-01
   1   13    4     8     3    1.6681E+02 -1.8040E+00   1.6861E+02  0.000E+00  0.000E+00  0.000E+00  1.01231E+03  2.937E+00  4.259E+01  4.340E+00 -1.386E-01
   1   13    3     8     4    1.6861E+02 -3.3483E+00   1.7196E+02  0.000E+00  0.000E+00  0.000E+00  1.00608E+03  2.954E+00  4.283E+01  4.365E+00 -2.557E-01
   1   13    2     8     5    1.7196E+02 -2.5065E+00   1.7447E+02  0.000E+00  0.000E+00  0.000E+00  9.99848E+02  2.973E+00  4.311E+01  4.393E+00 -1.902E-01
   1   13    1     8     6    1.7447E+02 -1.9649E+00   1.7643E+02  0.000E+00  0.000E+00  0.000E+00  9.94862E+02  2.987E+00  4.332E+01  2.648E+00 -2.473E-01





UNSATURATED ZONE PACKAGE VOLUMETRIC BUDGET FOR  TIME STEP    30 STRESS PERIOD   38
  ------------------------------------------------------------------------------



     CUMULATIVE VOLUMES      L**3       RATES FOR THIS TIME STEP      L**3/T
     ------------------                 ------------------------

           IN:                                      IN:
           ---                                      ---
        INFILTRATION =  1510064696.6464          INFILTRATION =           0.8475

          OUT:                                     OUT:
          ----                                     ----
              UZF ET =  1293167271.3828                UZF ET =           0.7500
        UZF RECHARGE =   216053132.8170          UZF RECHARGE =           0.0002

            IN - OUT =      844292.4466              IN - OUT =       9.7306E-02

          STORAGE:                                 STORAGE:
          --------                                 --------
      STORAGE CHANGE =      844271.2239        STORAGE CHANGE =       9.7306E-02

 PERCENT DISCREPANCY IS DIFFERENCE BETWEEN IN-OUT MINUS CHANGE IN STORAGE
 DIVIDED BY THE AVERAGE OF IN AND OUT TIMES 100

 PERCENT DISCREPANCY =           0.00     PERCENT DISCREPANCY =           0.00






1
  VOLUMETRIC BUDGET FOR AGRICULTURAL FIELDS AT  END OF TIME STEP   30, STRESS PERIOD  38
  ------------------------------------------------------------------------------

     CUMULATIVE VOLUMES      L**3       RATES FOR THIS TIME STEP      L**3/T
     ------------------                 ------------------------

           IN:                                      IN:
           ---                                      ---
               AG WELLS  =  1427519104.0000                 AG WELLS  =           0.0000
      DIVERSION SEGMENTS =           0.0000        DIVERSION SEGMENTS =           0.0000
           GW IRRIGATION =           0.0000             GW IRRIGATION =           0.0000
           SW IRRIGATION =           0.0000             SW IRRIGATION =           0.0000
        SYSTEM LOSSES GW =           0.0000          SYSTEM LOSSES GW =           0.0000
        SYSTEM LOSSES SW =           0.0000          SYSTEM LOSSES SW =           0.0000

                TOTAL IN =  1427519104.0000                  TOTAL IN =           0.0000

          OUT:                                     OUT:
          ----                                     ----
               AG WELLS  =           0.0000                 AG WELLS  =           0.0000
      DIVERSION SEGMENTS =           0.0000        DIVERSION SEGMENTS =           0.0000
           GW IRRIGATION =  1427519104.0000             GW IRRIGATION =           0.0000
           SW IRRIGATION =           0.0000             SW IRRIGATION =           0.0000
        SYSTEM LOSSES GW =           0.0000          SYSTEM LOSSES GW =           0.0000
        SYSTEM LOSSES SW =           0.0000          SYSTEM LOSSES SW =           0.0000

               TOTAL OUT =  1427519104.0000                 TOTAL OUT =           0.0000

                IN - OUT =           0.0000                  IN - OUT =           0.0000

     PERCENT DISCREPANCY =           0.00         PERCENT DISCREPANCY =           0.00



1
  VOLUMETRIC BUDGET FOR ENTIRE MODEL AT END OF TIME STEP   30, STRESS PERIOD  38
  ------------------------------------------------------------------------------

     CUMULATIVE VOLUMES      L**3       RATES FOR THIS TIME STEP      L**3/T
     ------------------                 ------------------------

           IN:                                      IN:
           ---                                      ---
             STORAGE     =  1855692160.0000               STORAGE     =           5.5997
       CONSTANT HEAD     =           0.0000         CONSTANT HEAD     =           0.0000
     HEAD DEP BOUNDS     =    27846506.0000       HEAD DEP BOUNDS     =           0.2876
      STREAM LEAKAGE     =  1193816064.0000        STREAM LEAKAGE     =          12.1927
        UZF RECHARGE     =   216053008.0000          UZF RECHARGE     =       1.9365E-04
               GW ET     =           0.0000                 GW ET     =           0.0000
     SURFACE LEAKAGE     =           0.0000       SURFACE LEAKAGE     =           0.0000
           AG WELLS      =           0.0000             AG WELLS      =           0.0000

                TOTAL IN =  3293407744.0000                  TOTAL IN =          18.0802

          OUT:                                     OUT:
          ----                                     ----
             STORAGE     =   824502464.0000               STORAGE     =           8.1682
       CONSTANT HEAD     =           0.0000         CONSTANT HEAD     =           0.0000
     HEAD DEP BOUNDS     =    28472514.0000       HEAD DEP BOUNDS     =           0.2890
      STREAM LEAKAGE     =   995369408.0000        STREAM LEAKAGE     =           9.6237
        UZF RECHARGE     =           0.0000          UZF RECHARGE     =           0.0000
               GW ET     =    17516984.0000                 GW ET     =           0.0000
     SURFACE LEAKAGE     =           0.0000       SURFACE LEAKAGE     =           0.0000
           AG WELLS      =  1427519104.0000             AG WELLS      =           0.0000

               TOTAL OUT =  3293380352.0000                 TOTAL OUT =          18.0809

                IN - OUT =       27392.0000                  IN - OUT =      -7.2670E-04

     PERCENT DISCREPANCY =           0.00         PERCENT DISCREPANCY =          -0.00






         TIME SUMMARY AT END OF TIME STEP   30 IN STRESS PERIOD   38
                    SECONDS     MINUTES      HOURS       DAYS        YEARS
                    -----------------------------------------------------------
   TIME STEP LENGTH  87667.      1461.1      24.352      1.0147     2.77799E-03
 STRESS PERIOD TIME 2.63000E+06  43833.      730.56      30.440     8.33397E-02
         TOTAL TIME 9.73959E+07 1.62326E+06  27054.      1127.3      3.0863    
1
1
                            STRESS PERIOD NO.   39, LENGTH =   2630000.    
                            -----------------------------------------------

                              NUMBER OF TIME STEPS =    30

                               MULTIPLIER FOR DELT =     1.000

                            INITIAL TIME STEP SIZE =   87666.66    

 REUSING NON-PARAMETER GHB CELLS FROM LAST STRESS PERIOD

      2 GHB CELLS

 REUSING STREAM SEGMENT DATA FROM LAST STRESS PERIOD



            AREAL INFILTRATION RATE
 READING ON UNIT   19 WITH FORMAT: (FREE)              

            1           2           3           4           5           6           7           8           9          10
 ........................................................................................................................
   1   1.0000E-10  2.0000E-10   0.000       0.000       0.000       0.000       0.000       0.000       0.000       0.000    
   2   2.0000E-10  1.0000E-10  2.0000E-10   0.000       0.000      8.0000E-10  8.0000E-10  5.0000E-10   0.000       0.000    
   3    0.000      5.0000E-10  1.0000E-10  1.0000E-10  8.0000E-10  8.0000E-10  5.0000E-10  5.0000E-10   0.000       0.000    
   4   8.0000E-10  5.0000E-10  1.0000E-10  1.0000E-10  1.0000E-10  1.0000E-10  1.0000E-10  1.0000E-10  2.0000E-10   0.000    
   5   8.0000E-10  5.0000E-10  1.0000E-10  1.0000E-10  1.0000E-10  1.0000E-10  1.0000E-10  1.0000E-10  1.0000E-10  1.0000E-10
   6   8.0000E-10  5.0000E-10  5.0000E-10  2.0000E-10  2.0000E-10  1.0000E-10  1.0000E-10  1.0000E-10  1.0000E-10  5.0000E-10
   7   8.0000E-10  5.0000E-10  5.0000E-10  2.0000E-10  2.0000E-10  1.0000E-10  1.0000E-10  2.0000E-10  2.0000E-10   0.000    
   8    0.000      5.0000E-10  5.0000E-10  2.0000E-10  2.0000E-10  1.0000E-10  1.0000E-10  2.0000E-10  5.0000E-10   0.000    
   9    0.000      5.0000E-10  5.0000E-10  2.0000E-10  2.0000E-10  1.0000E-10  1.0000E-10  2.0000E-10  5.0000E-10   0.000    
  10    0.000      5.0000E-10  5.0000E-10  2.0000E-10  2.0000E-10  1.0000E-10  1.0000E-10  2.0000E-10  5.0000E-10  8.0000E-10
  11    0.000      1.0000E-10  1.0000E-10  1.0000E-10  1.0000E-10  1.0000E-10  1.0000E-10  2.0000E-10  5.0000E-10   0.000    
  12   1.0000E-10  1.0000E-10  1.0000E-10  1.0000E-10  1.0000E-10  1.0000E-10  1.0000E-10  1.0000E-10  2.0000E-10   0.000    
  13   1.0000E-10  1.0000E-10  2.0000E-10  2.0000E-10  2.0000E-10  2.0000E-10  2.0000E-10  1.0000E-10  1.0000E-10   0.000    
  14    0.000      2.0000E-10  5.0000E-10  5.0000E-10  5.0000E-10  5.0000E-10  5.0000E-10  2.0000E-10  1.0000E-10   0.000    
  15    0.000       0.000      8.0000E-10  8.0000E-10  8.0000E-10  8.0000E-10   0.000       0.000       0.000       0.000    

                  ET RATE =  5.000000E-10

 USING ET EXTINCTION DEPTH FROM PREVIOUS STRESS PERIOD. CURRENT PERIOD IS:      39

 USING EXTINCTION WATER CONTENT FROM PREVIOUS STRESS PERIOD. CURRENT PERIOD IS:      39

 USING AIR ENTRY PRESSURE FROM PREVIOUS STRESS PERIOD. CURRENT PERIOD IS:      39

 USING ROOT PRESSURE HEAD FROM PREVIOUS STRESS PERIOD. CURRENT PERIOD IS:      39

 USING ROOT ACTIVITY FROM PREVIOUS STRESS PERIOD. CURRENT PERIOD IS:      39

 PROCESSING AG STRESS PERIOD DATA

 READING AG STRESS PERIOD DATA

 READING IRRIGATION WELL

 END PROCESSING AG STRESS PERIOD DATA OPTIONS
 
 SOLVING FOR HEAD 
                                                   Max.-Head-Change                         Max.-Flux-Residual
  Residual-Control   Outer-Iter.   Inner-Iter.     Column Row Layer    Maximum-Head-Change  Column Row Layer    Maximum-Flux-Residual          L2-NORM 
          0                 1           2             4    7     1       0.1472933676E-01       4    7    1         0.7711698682E+00      0.2072669567E+01
          0                 2           2             4    7     1      -0.1431989454E-02       4    7    1        -0.7707524706E-01      0.2071992796E+00
          0                 3           1             4    7     1       0.9743963206E-04       4    7    1         0.5391184116E-02      0.1449736035E-01

    ------------------------------------------------
       NWT REQUIRED            3 OUTER ITERATIONS 
       AND A TOTAL OF          5 INNER ITERATIONS.
    ------------------------------------------------

 NO OUTPUT CONTROL FOR STRESS PERIOD   39   TIME STEP    1
 
 SOLVING FOR HEAD 
                                                   Max.-Head-Change                         Max.-Flux-Residual
  Residual-Control   Outer-Iter.   Inner-Iter.     Column Row Layer    Maximum-Head-Change  Column Row Layer    Maximum-Flux-Residual          L2-NORM 
          0                 1           2             4    7     1       0.1461788398E-01       4    7    1         0.7653122149E+00      0.2060113723E+01
          0                 2           2             4    7     1      -0.1421153940E-02       4    7    1        -0.7648979488E-01      0.2059442542E+00
          0                 3           1             4    7     1       0.9670232985E-04       4    7    1         0.5350233388E-02      0.1440957525E-01

    ------------------------------------------------
       NWT REQUIRED            3 OUTER ITERATIONS 
       AND A TOTAL OF          5 INNER ITERATIONS.
    ------------------------------------------------

 NO OUTPUT CONTROL FOR STRESS PERIOD   39   TIME STEP    2
 
 SOLVING FOR HEAD 
                                                   Max.-Head-Change                         Max.-Flux-Residual
  Residual-Control   Outer-Iter.   Inner-Iter.     Column Row Layer    Maximum-Head-Change  Column Row Layer    Maximum-Flux-Residual          L2-NORM 
          0                 1           2             4    7     1       0.1450765636E-01       4    7    1         0.7595189177E+00      0.2047705291E+01
          0                 2           2             4    7     1      -0.1410437537E-02       4    7    1        -0.7591077492E-01      0.2047039834E+00
          0                 3           1             4    7     1       0.9597313180E-04       4    7    1         0.5309732551E-02      0.1432282225E-01

    ------------------------------------------------
       NWT REQUIRED            3 OUTER ITERATIONS 
       AND A TOTAL OF          5 INNER ITERATIONS.
    ------------------------------------------------

 NO OUTPUT CONTROL FOR STRESS PERIOD   39   TIME STEP    3
 
 SOLVING FOR HEAD 
                                                   Max.-Head-Change                         Max.-Flux-Residual
  Residual-Control   Outer-Iter.   Inner-Iter.     Column Row Layer    Maximum-Head-Change  Column Row Layer    Maximum-Flux-Residual          L2-NORM 
          0                 1           2             4    7     1       0.1439863284E-01       4    7    1         0.7537891427E+00      0.2035428331E+01
          0                 2           2             4    7     1      -0.1399838198E-02       4    7    1        -0.7533810381E-01      0.2034768112E+00
          0                 3           1             4    7     1       0.9525189971E-04       4    7    1         0.5269675817E-02      0.1423694575E-01

    ------------------------------------------------
       NWT REQUIRED            3 OUTER ITERATIONS 
       AND A TOTAL OF          5 INNER ITERATIONS.
    ------------------------------------------------

 NO OUTPUT CONTROL FOR STRESS PERIOD   39   TIME STEP    4
 
 SOLVING FOR HEAD 
                                                   Max.-Head-Change                         Max.-Flux-Residual
  Residual-Control   Outer-Iter.   Inner-Iter.     Column Row Layer    Maximum-Head-Change  Column Row Layer    Maximum-Flux-Residual          L2-NORM 
          0                 1           2             4    7     1       0.1429079516E-01       4    7    1         0.7481217971E+00      0.2023287068E+01
          0                 2           2             4    7     1      -0.1389354148E-02       4    7    1        -0.7477167238E-01      0.2022632161E+00
          0                 3           1             4    7     1       0.9453851286E-04       4    7    1         0.5230055531E-02      0.1415205078E-01

    ------------------------------------------------
       NWT REQUIRED            3 OUTER ITERATIONS 
       AND A TOTAL OF          5 INNER ITERATIONS.
    ------------------------------------------------

 NO OUTPUT CONTROL FOR STRESS PERIOD   39   TIME STEP    5
 
 SOLVING FOR HEAD 
                                                   Max.-Head-Change                         Max.-Flux-Residual
  Residual-Control   Outer-Iter.   Inner-Iter.     Column Row Layer    Maximum-Head-Change  Column Row Layer    Maximum-Flux-Residual          L2-NORM 
          0                 1           2             4    7     1       0.1418426037E-01       4    7    1         0.7425232512E+00      0.2011281290E+01
          0                 2           2             4    7     1      -0.1378996766E-02       4    7    1        -0.7421211728E-01      0.2010632090E+00
          0                 3           1             4    7     1       0.9383374507E-04       4    7    1         0.5190916243E-02      0.1406813304E-01

    ------------------------------------------------
       NWT REQUIRED            3 OUTER ITERATIONS 
       AND A TOTAL OF          5 INNER ITERATIONS.
    ------------------------------------------------

 NO OUTPUT CONTROL FOR STRESS PERIOD   39   TIME STEP    6
 
 SOLVING FOR HEAD 
                                                   Max.-Head-Change                         Max.-Flux-Residual
  Residual-Control   Outer-Iter.   Inner-Iter.     Column Row Layer    Maximum-Head-Change  Column Row Layer    Maximum-Flux-Residual          L2-NORM 
          0                 1           2             4    7     1       0.1407900136E-01       4    7    1         0.7369922577E+00      0.1999406411E+01
          0                 2           2             4    7     1      -0.1368763418E-02       4    7    1        -0.7365931390E-01      0.1998762493E+00
          0                 3           1             4    7     1       0.9313741715E-04       4    7    1         0.5152249205E-02      0.1398513749E-01

    ------------------------------------------------
       NWT REQUIRED            3 OUTER ITERATIONS 
       AND A TOTAL OF          5 INNER ITERATIONS.
    ------------------------------------------------

 NO OUTPUT CONTROL FOR STRESS PERIOD   39   TIME STEP    7
 
 SOLVING FOR HEAD 
                                                   Max.-Head-Change                         Max.-Flux-Residual
  Residual-Control   Outer-Iter.   Inner-Iter.     Column Row Layer    Maximum-Head-Change  Column Row Layer    Maximum-Flux-Residual          L2-NORM 
          0                 1           2             4    7     1       0.1397472493E-01       4    7    1         0.7315127787E+00      0.1987656473E+01
          0                 2           2             4    7     1      -0.1358625597E-02       4    7    1        -0.7311165925E-01      0.1987017636E+00
          0                 3           1             4    7     1       0.9244758924E-04       4    7    1         0.5113942306E-02      0.1390290314E-01

    ------------------------------------------------
       NWT REQUIRED            3 OUTER ITERATIONS 
       AND A TOTAL OF          5 INNER ITERATIONS.
    ------------------------------------------------

 NO OUTPUT CONTROL FOR STRESS PERIOD   39   TIME STEP    8
 
 SOLVING FOR HEAD 
                                                   Max.-Head-Change                         Max.-Flux-Residual
  Residual-Control   Outer-Iter.   Inner-Iter.     Column Row Layer    Maximum-Head-Change  Column Row Layer    Maximum-Flux-Residual          L2-NORM 
          0                 1           2             4    7     1       0.1387182526E-01       4    7    1         0.7261061933E+00      0.1976037668E+01
          0                 2           2             4    7     1      -0.1348621627E-02       4    7    1        -0.7257129010E-01      0.1975403874E+00
          0                 3           1             4    7     1       0.9176686946E-04       4    7    1         0.5076145025E-02      0.1382165271E-01

    ------------------------------------------------
       NWT REQUIRED            3 OUTER ITERATIONS 
       AND A TOTAL OF          5 INNER ITERATIONS.
    ------------------------------------------------

 NO OUTPUT CONTROL FOR STRESS PERIOD   39   TIME STEP    9
 
 SOLVING FOR HEAD 
                                                   Max.-Head-Change                         Max.-Flux-Residual
  Residual-Control   Outer-Iter.   Inner-Iter.     Column Row Layer    Maximum-Head-Change  Column Row Layer    Maximum-Flux-Residual          L2-NORM 
          0                 1           2             4    7     1       0.1376987289E-01       4    7    1         0.7207490406E+00      0.1964546769E+01
          0                 2           2             4    7     1      -0.1338709754E-02       4    7    1        -0.7203586161E-01      0.1963918357E+00
          0                 3           1             4    7     1       0.9109241572E-04       4    7    1         0.5038693300E-02      0.1374132048E-01

    ------------------------------------------------
       NWT REQUIRED            3 OUTER ITERATIONS 
       AND A TOTAL OF          5 INNER ITERATIONS.
    ------------------------------------------------

 NO OUTPUT CONTROL FOR STRESS PERIOD   39   TIME STEP   10
 
 SOLVING FOR HEAD 
                                                   Max.-Head-Change                         Max.-Flux-Residual
  Residual-Control   Outer-Iter.   Inner-Iter.     Column Row Layer    Maximum-Head-Change  Column Row Layer    Maximum-Flux-Residual          L2-NORM 
          0                 1           2             4    7     1       0.1366912189E-01       4    7    1         0.7154556375E+00      0.1953175096E+01
          0                 2           2             4    7     1      -0.1328914679E-02       4    7    1        -0.7150680476E-01      0.1952551705E+00
          0                 3           1             4    7     1       0.9042590994E-04       4    7    1         0.5001687271E-02      0.1366178917E-01

    ------------------------------------------------
       NWT REQUIRED            3 OUTER ITERATIONS 
       AND A TOTAL OF          5 INNER ITERATIONS.
    ------------------------------------------------

 NO OUTPUT CONTROL FOR STRESS PERIOD   39   TIME STEP   11
 
 SOLVING FOR HEAD 
                                                   Max.-Head-Change                         Max.-Flux-Residual
  Residual-Control   Outer-Iter.   Inner-Iter.     Column Row Layer    Maximum-Head-Change  Column Row Layer    Maximum-Flux-Residual          L2-NORM 
          0                 1           2             4    7     1       0.1356955295E-01       4    7    1         0.7102245225E+00      0.1941928408E+01
          0                 2           2             4    7     1      -0.1319234526E-02       4    7    1        -0.7098397341E-01      0.1941310032E+00
          0                 3           1             4    7     1       0.8976722408E-04       4    7    1         0.4965116694E-02      0.1358314429E-01

    ------------------------------------------------
       NWT REQUIRED            3 OUTER ITERATIONS 
       AND A TOTAL OF          5 INNER ITERATIONS.
    ------------------------------------------------

 NO OUTPUT CONTROL FOR STRESS PERIOD   39   TIME STEP   12
 
 SOLVING FOR HEAD 
                                                   Max.-Head-Change                         Max.-Flux-Residual
  Residual-Control   Outer-Iter.   Inner-Iter.     Column Row Layer    Maximum-Head-Change  Column Row Layer    Maximum-Flux-Residual          L2-NORM 
          0                 1           2             4    7     1       0.1347101113E-01       4    7    1         0.7050473783E+00      0.1930803603E+01
          0                 2           2             4    7     1      -0.1309654231E-02       4    7    1        -0.7046653629E-01      0.1930190228E+00
          0                 3           1             4    7     1       0.8911533312E-04       4    7    1         0.4928923437E-02      0.1350537466E-01

    ------------------------------------------------
       NWT REQUIRED            3 OUTER ITERATIONS 
       AND A TOTAL OF          5 INNER ITERATIONS.
    ------------------------------------------------

 NO OUTPUT CONTROL FOR STRESS PERIOD   39   TIME STEP   13
 
 SOLVING FOR HEAD 
                                                   Max.-Head-Change                         Max.-Flux-Residual
  Residual-Control   Outer-Iter.   Inner-Iter.     Column Row Layer    Maximum-Head-Change  Column Row Layer    Maximum-Flux-Residual          L2-NORM 
          0                 1           2             4    7     1       0.1337361196E-01       4    7    1         0.6999308058E+00      0.1919788983E+01
          0                 2           2             4    7     1      -0.1300185026E-02       4    7    1        -0.6995515318E-01      0.1919180502E+00
          0                 3           1             4    7     1       0.8847100090E-04       4    7    1         0.4893153628E-02      0.1342834334E-01

    ------------------------------------------------
       NWT REQUIRED            3 OUTER ITERATIONS 
       AND A TOTAL OF          5 INNER ITERATIONS.
    ------------------------------------------------

 NO OUTPUT CONTROL FOR STRESS PERIOD   39   TIME STEP   14
 
 SOLVING FOR HEAD 
                                                   Max.-Head-Change                         Max.-Flux-Residual
  Residual-Control   Outer-Iter.   Inner-Iter.     Column Row Layer    Maximum-Head-Change  Column Row Layer    Maximum-Flux-Residual          L2-NORM 
          0                 1           2             4    7     1       0.1327720459E-01       4    7    1         0.6948661596E+00      0.1908900714E+01
          0                 2           2             4    7     1      -0.1290812245E-02       4    7    1        -0.6944895991E-01      0.1908297122E+00
          0                 3           1             4    7     1       0.8783323046E-04       4    7    1         0.4857746858E-02      0.1335220792E-01

    ------------------------------------------------
       NWT REQUIRED            3 OUTER ITERATIONS 
       AND A TOTAL OF          5 INNER ITERATIONS.
    ------------------------------------------------

 NO OUTPUT CONTROL FOR STRESS PERIOD   39   TIME STEP   15
 
 SOLVING FOR HEAD 
                                                   Max.-Head-Change                         Max.-Flux-Residual
  Residual-Control   Outer-Iter.   Inner-Iter.     Column Row Layer    Maximum-Head-Change  Column Row Layer    Maximum-Flux-Residual          L2-NORM 
          0                 1           2             4    7     1       0.1318190824E-01       4    7    1         0.6898602546E+00      0.1898122815E+01
          0                 2           2             4    7     1      -0.1281547478E-02       4    7    1        -0.6894863769E-01      0.1897524183E+00
          0                 3           1             4    7     1       0.8720280942E-04       4    7    1         0.4822750725E-02      0.1327685793E-01

    ------------------------------------------------
       NWT REQUIRED            3 OUTER ITERATIONS 
       AND A TOTAL OF          5 INNER ITERATIONS.
    ------------------------------------------------

 NO OUTPUT CONTROL FOR STRESS PERIOD   39   TIME STEP   16
 
 SOLVING FOR HEAD 
                                                   Max.-Head-Change                         Max.-Flux-Residual
  Residual-Control   Outer-Iter.   Inner-Iter.     Column Row Layer    Maximum-Head-Change  Column Row Layer    Maximum-Flux-Residual          L2-NORM 
          0                 1           2             4    7     1       0.1308756953E-01       4    7    1         0.6849046355E+00      0.1887464090E+01
          0                 2           2             4    7     1      -0.1272375813E-02       4    7    1        -0.6845334139E-01      0.1886870088E+00
          0                 3           1             4    7     1       0.8657872342E-04       4    7    1         0.4788106154E-02      0.1320231153E-01

    ------------------------------------------------
       NWT REQUIRED            3 OUTER ITERATIONS 
       AND A TOTAL OF          5 INNER ITERATIONS.
    ------------------------------------------------

 NO OUTPUT CONTROL FOR STRESS PERIOD   39   TIME STEP   17
 
 SOLVING FOR HEAD 
                                                   Max.-Head-Change                         Max.-Flux-Residual
  Residual-Control   Outer-Iter.   Inner-Iter.     Column Row Layer    Maximum-Head-Change  Column Row Layer    Maximum-Flux-Residual          L2-NORM 
          0                 1           2             4    7     1       0.1299430856E-01       4    7    1         0.6800059861E+00      0.1876912946E+01
          0                 2           2             4    7     1      -0.1263308928E-02       4    7    1        -0.6796373907E-01      0.1876323672E+00
          0                 3           1             4    7     1       0.8596176744E-04       4    7    1         0.4753859870E-02      0.1312857271E-01

    ------------------------------------------------
       NWT REQUIRED            3 OUTER ITERATIONS 
       AND A TOTAL OF          5 INNER ITERATIONS.
    ------------------------------------------------

 NO OUTPUT CONTROL FOR STRESS PERIOD   39   TIME STEP   18
 
 SOLVING FOR HEAD 
                                                   Max.-Head-Change                         Max.-Flux-Residual
  Residual-Control   Outer-Iter.   Inner-Iter.     Column Row Layer    Maximum-Head-Change  Column Row Layer    Maximum-Flux-Residual          L2-NORM 
          0                 1           2             4    7     1       0.1290210899E-01       4    7    1         0.6751632160E+00      0.1866474385E+01
          0                 2           2             4    7     1      -0.1254345233E-02       4    7    1        -0.6747972173E-01      0.1865889741E+00
          0                 3           1             4    7     1       0.8535183273E-04       4    7    1         0.4720004220E-02      0.1305553627E-01

    ------------------------------------------------
       NWT REQUIRED            3 OUTER ITERATIONS 
       AND A TOTAL OF          5 INNER ITERATIONS.
    ------------------------------------------------

 NO OUTPUT CONTROL FOR STRESS PERIOD   39   TIME STEP   19
 
 SOLVING FOR HEAD 
                                                   Max.-Head-Change                         Max.-Flux-Residual
  Residual-Control   Outer-Iter.   Inner-Iter.     Column Row Layer    Maximum-Head-Change  Column Row Layer    Maximum-Flux-Residual          L2-NORM 
          0                 1           2             4    7     1       0.1281081586E-01       4    7    1         0.6703681589E+00      0.1856145916E+01
          0                 2           2             4    7     1      -0.1245469664E-02       4    7    1        -0.6700047314E-01      0.1855565774E+00
          0                 3           1             4    7     1       0.8474789485E-04       4    7    1         0.4686482143E-02      0.1298332628E-01

    ------------------------------------------------
       NWT REQUIRED            3 OUTER ITERATIONS 
       AND A TOTAL OF          5 INNER ITERATIONS.
    ------------------------------------------------

 NO OUTPUT CONTROL FOR STRESS PERIOD   39   TIME STEP   20
 
 SOLVING FOR HEAD 
                                                   Max.-Head-Change                         Max.-Flux-Residual
  Residual-Control   Outer-Iter.   Inner-Iter.     Column Row Layer    Maximum-Head-Change  Column Row Layer    Maximum-Flux-Residual          L2-NORM 
          0                 1           2             4    7     1       0.1272055175E-01       4    7    1         0.6656274178E+00      0.1845925782E+01
          0                 2           2             4    7     1      -0.1236694137E-02       4    7    1        -0.6652665330E-01      0.1845350346E+00
          0                 3           1             4    7     1       0.8415076440E-04       4    7    1         0.4653339807E-02      0.1291186133E-01

    ------------------------------------------------
       NWT REQUIRED            3 OUTER ITERATIONS 
       AND A TOTAL OF          5 INNER ITERATIONS.
    ------------------------------------------------

 NO OUTPUT CONTROL FOR STRESS PERIOD   39   TIME STEP   21
 
 SOLVING FOR HEAD 
                                                   Max.-Head-Change                         Max.-Flux-Residual
  Residual-Control   Outer-Iter.   Inner-Iter.     Column Row Layer    Maximum-Head-Change  Column Row Layer    Maximum-Flux-Residual          L2-NORM 
          0                 1           2             4    7     1       0.1263130041E-01       4    7    1         0.6609400295E+00      0.1835812026E+01
          0                 2           2             4    7     1      -0.1228017073E-02       4    7    1        -0.6605816590E-01      0.1835241227E+00
          0                 3           1             4    7     1       0.8356033334E-04       4    7    1         0.4620570426E-02      0.1284112041E-01

    ------------------------------------------------
       NWT REQUIRED            3 OUTER ITERATIONS 
       AND A TOTAL OF          5 INNER ITERATIONS.
    ------------------------------------------------

 NO OUTPUT CONTROL FOR STRESS PERIOD   39   TIME STEP   22
 
 SOLVING FOR HEAD 
                                                   Max.-Head-Change                         Max.-Flux-Residual
  Residual-Control   Outer-Iter.   Inner-Iter.     Column Row Layer    Maximum-Head-Change  Column Row Layer    Maximum-Flux-Residual          L2-NORM 
          0                 1           2             4    7     1       0.1254290914E-01       4    7    1         0.6562978323E+00      0.1825797927E+01
          0                 2           2             4    7     1      -0.1219423625E-02       4    7    1        -0.6559419523E-01      0.1825231471E+00
          0                 3           1             4    7     1       0.8297559250E-04       4    7    1         0.4588117014E-02      0.1277110986E-01

    ------------------------------------------------
       NWT REQUIRED            3 OUTER ITERATIONS 
       AND A TOTAL OF          5 INNER ITERATIONS.
    ------------------------------------------------

 NO OUTPUT CONTROL FOR STRESS PERIOD   39   TIME STEP   23
 
 SOLVING FOR HEAD 
                                                   Max.-Head-Change                         Max.-Flux-Residual
  Residual-Control   Outer-Iter.   Inner-Iter.     Column Row Layer    Maximum-Head-Change  Column Row Layer    Maximum-Flux-Residual          L2-NORM 
          0                 1           2             4    7     1       0.1245549892E-01       4    7    1         0.6517075473E+00      0.1815886901E+01
          0                 2           2             4    7     1      -0.1210925556E-02       4    7    1        -0.6513541305E-01      0.1815324896E+00
          0                 3           1             4    7     1       0.8239734147E-04       4    7    1         0.4556026494E-02      0.1270182114E-01

    ------------------------------------------------
       NWT REQUIRED            3 OUTER ITERATIONS 
       AND A TOTAL OF          5 INNER ITERATIONS.
    ------------------------------------------------

 NO OUTPUT CONTROL FOR STRESS PERIOD   39   TIME STEP   24
 
 SOLVING FOR HEAD 
                                                   Max.-Head-Change                         Max.-Flux-Residual
  Residual-Control   Outer-Iter.   Inner-Iter.     Column Row Layer    Maximum-Head-Change  Column Row Layer    Maximum-Flux-Residual          L2-NORM 
          0                 1           2             4    7     1       0.1236892128E-01       4    7    1         0.6471608080E+00      0.1806078495E+01
          0                 2           2             4    7     1      -0.1202508430E-02       4    7    1        -0.6468098311E-01      0.1805520812E+00
          0                 3           1             4    7     1       0.8182459807E-04       4    7    1         0.4524240398E-02      0.1263322787E-01

    ------------------------------------------------
       NWT REQUIRED            3 OUTER ITERATIONS 
       AND A TOTAL OF          5 INNER ITERATIONS.
    ------------------------------------------------

 NO OUTPUT CONTROL FOR STRESS PERIOD   39   TIME STEP   25
 
 SOLVING FOR HEAD 
                                                   Max.-Head-Change                         Max.-Flux-Residual
  Residual-Control   Outer-Iter.   Inner-Iter.     Column Row Layer    Maximum-Head-Change  Column Row Layer    Maximum-Flux-Residual          L2-NORM 
          0                 1           2             4    7     1       0.1228343743E-01       4    7    1         0.6426718763E+00      0.1796377260E+01
          0                 2           2             4    7     1      -0.1194197645E-02       4    7    1        -0.6423233087E-01      0.1795823846E+00
          0                 3           1             4    7     1       0.8125909095E-04       4    7    1         0.4492858464E-02      0.1256537661E-01

    ------------------------------------------------
       NWT REQUIRED            3 OUTER ITERATIONS 
       AND A TOTAL OF          5 INNER ITERATIONS.
    ------------------------------------------------

 NO OUTPUT CONTROL FOR STRESS PERIOD   39   TIME STEP   26
 
 SOLVING FOR HEAD 
                                                   Max.-Head-Change                         Max.-Flux-Residual
  Residual-Control   Outer-Iter.   Inner-Iter.     Column Row Layer    Maximum-Head-Change  Column Row Layer    Maximum-Flux-Residual          L2-NORM 
          0                 1           2             4    7     1       0.1219875175E-01       4    7    1         0.6382250158E+00      0.1786771447E+01
          0                 2           2             4    7     1      -0.1185964460E-02       4    7    1        -0.6378788355E-01      0.1786222213E+00
          0                 3           1             4    7     1       0.8069886390E-04       4    7    1         0.4461770645E-02      0.1249821684E-01

    ------------------------------------------------
       NWT REQUIRED            3 OUTER ITERATIONS 
       AND A TOTAL OF          5 INNER ITERATIONS.
    ------------------------------------------------

 NO OUTPUT CONTROL FOR STRESS PERIOD   39   TIME STEP   27
 
 SOLVING FOR HEAD 
                                                   Max.-Head-Change                         Max.-Flux-Residual
  Residual-Control   Outer-Iter.   Inner-Iter.     Column Row Layer    Maximum-Head-Change  Column Row Layer    Maximum-Flux-Residual          L2-NORM 
          0                 1           2             4    7     1       0.1211485871E-01       4    7    1         0.6338195389E+00      0.1777260849E+01
          0                 2           2             4    7     1      -0.1177808334E-02       4    7    1        -0.6334757235E-01      0.1776715997E+00
          0                 3           1             4    7     1       0.8014388070E-04       4    7    1         0.4430972132E-02      0.1243170059E-01

    ------------------------------------------------
       NWT REQUIRED            3 OUTER ITERATIONS 
       AND A TOTAL OF          5 INNER ITERATIONS.
    ------------------------------------------------

 NO OUTPUT CONTROL FOR STRESS PERIOD   39   TIME STEP   28
 
 SOLVING FOR HEAD 
                                                   Max.-Head-Change                         Max.-Flux-Residual
  Residual-Control   Outer-Iter.   Inner-Iter.     Column Row Layer    Maximum-Head-Change  Column Row Layer    Maximum-Flux-Residual          L2-NORM 
          0                 1           2             4    7     1       0.1203201577E-01       4    7    1         0.6294697995E+00      0.1767848460E+01
          0                 2           2             4    7     1      -0.1169754301E-02       4    7    1        -0.6291283200E-01      0.1767307770E+00
          0                 3           1             4    7     1       0.7959584386E-04       4    7    1         0.4400563271E-02      0.1236589776E-01

    ------------------------------------------------
       NWT REQUIRED            3 OUTER ITERATIONS 
       AND A TOTAL OF          5 INNER ITERATIONS.
    ------------------------------------------------

 NO OUTPUT CONTROL FOR STRESS PERIOD   39   TIME STEP   29
 
 SOLVING FOR HEAD 
                                                   Max.-Head-Change                         Max.-Flux-Residual
  Residual-Control   Outer-Iter.   Inner-Iter.     Column Row Layer    Maximum-Head-Change  Column Row Layer    Maximum-Flux-Residual          L2-NORM 
          0                 1           2             4    7     1       0.1194993325E-01       4    7    1         0.6251598651E+00      0.1758529708E+01
          0                 2           2             4    7     1      -0.1161774196E-02       4    7    1        -0.6248206999E-01      0.1757993180E+00
          0                 3           1             4    7     1       0.7905283727E-04       4    7    1         0.4370432692E-02      0.1230073531E-01

    ------------------------------------------------
       NWT REQUIRED            3 OUTER ITERATIONS 
       AND A TOTAL OF          5 INNER ITERATIONS.
    ------------------------------------------------

 NO OUTPUT CONTROL FOR STRESS PERIOD   39   TIME STEP   30



 STREAM LISTING     PERIOD     39   STEP       30

 LAYER ROW COL. STREAM  RCH.  FLOW INTO     FLOW TO   FLOW OUT OF   OVRLND.     DIRECT     STREAM       STREAM     STREAM     STREAM   STREAMBED  STREAMBED
                SEG.NO.  NO.  STRM. RCH.    AQUIFER    STRM. RCH.    RUNOFF     PRECIP       ET          HEAD       DEPTH      WIDTH   CONDCTNC.   GRADIENT

   1    1    1     1     1    1.9000E+01  2.1427E-01   1.8786E+01  0.000E+00  0.000E+00  0.000E+00  1.09413E+03  1.082E+00  1.166E+01  5.249E-02  1.361E+00
   1    2    2     1     2    1.8786E+01  3.3054E-01   1.8455E+01  0.000E+00  0.000E+00  0.000E+00  1.08914E+03  1.077E+00  1.158E+01  8.107E-02  1.359E+00
   1    3    3     1     3    1.8455E+01  2.8064E-01   1.8175E+01  0.000E+00  0.000E+00  0.000E+00  1.08349E+03  1.072E+00  1.149E+01  6.892E-02  1.357E+00
   1    3    4     1     4    1.8175E+01  2.5740E-01   1.7917E+01  0.000E+00  0.000E+00  0.000E+00  1.07848E+03  1.068E+00  1.140E+01  6.328E-02  1.356E+00
   1    4    5     2     1    1.5917E+01  3.0542E-01   1.5612E+01  0.000E+00  0.000E+00  0.000E+00  1.07285E+03  9.157E-01  1.200E+01  7.800E-02  1.305E+00
   1    5    6     2     2    1.5612E+01  2.3438E-01   1.5377E+01  0.000E+00  0.000E+00  0.000E+00  1.06742E+03  9.063E-01  1.200E+01  6.000E-02  1.302E+00
   1    6    6     2     3    1.5377E+01  2.3388E-01   1.5143E+01  0.000E+00  0.000E+00  0.000E+00  1.06269E+03  8.980E-01  1.200E+01  6.000E-02  1.299E+00
   1    7    6     2     4    1.5143E+01  2.3338E-01   1.4910E+01  0.000E+00  0.000E+00  0.000E+00  1.05797E+03  8.897E-01  1.200E+01  6.000E-02  1.297E+00
   1    8    6     2     5    1.4910E+01  2.3289E-01   1.4677E+01  0.000E+00  0.000E+00  0.000E+00  1.05324E+03  8.814E-01  1.200E+01  6.000E-02  1.294E+00
   1    3    5     3     1    2.0000E+00  2.8252E-01   1.7175E+00  0.000E+00  0.000E+00  0.000E+00  1.07555E+03  1.909E+00  9.636E+00  7.227E-02  1.955E+00
   1    3    6     3     2    1.7175E+00  2.4905E-01   1.4684E+00  0.000E+00  0.000E+00  0.000E+00  1.07264E+03  1.727E+00  8.909E+00  6.682E-02  1.864E+00
   1    3    7     3     3    1.4684E+00  1.9718E-01   1.2712E+00  0.000E+00  0.000E+00  0.000E+00  1.06987E+03  1.555E+00  8.218E+00  5.547E-02  1.777E+00
   1    4    8     3     4    1.2712E+00  2.2567E-01   1.0456E+00  0.000E+00  0.000E+00  0.000E+00  1.06682E+03  1.364E+00  7.455E+00  6.709E-02  1.682E+00
   1    5    8     3     5    1.0456E+00  1.5790E-01   8.8768E-01  0.000E+00  0.000E+00  0.000E+00  1.06362E+03  1.164E+00  6.655E+00  4.991E-02  1.582E+00
   1    6    8     3     6    8.8768E-01  5.5980E-02   8.3170E-01  0.000E+00  0.000E+00  0.000E+00  1.06158E+03  1.036E+00  6.145E+00  1.844E-02  1.518E+00
   1    5   10     4     1    1.0000E+01  9.0919E-02   9.9091E+00  0.000E+00  0.000E+00  0.000E+00  1.07836E+03  6.368E-01  1.000E+01  2.500E-02  1.212E+00
   1    5    9     4     2    9.9091E+00  1.8158E-01   9.7275E+00  0.000E+00  0.000E+00  0.000E+00  1.07154E+03  6.315E-01  1.000E+01  5.000E-02  1.211E+00
   1    6    8     4     3    9.7275E+00  1.2689E-01   9.6006E+00  0.000E+00  0.000E+00  0.000E+00  1.06381E+03  6.256E-01  1.000E+01  3.500E-02  1.209E+00
   1    6    8     5     1    1.0432E+01  2.2686E-01   1.0205E+01  0.000E+00  0.000E+00  0.000E+00  1.05868E+03  6.790E-01  1.542E+01  6.166E-02  1.226E+00
   1    7    7     5     2    1.0205E+01  2.7894E-01   9.9265E+00  0.000E+00  0.000E+00  0.000E+00  1.05417E+03  6.732E-01  1.519E+01  7.594E-02  1.224E+00
   1    8    7     5     3    9.9265E+00  1.9221E-01   9.7343E+00  0.000E+00  0.000E+00  0.000E+00  1.04992E+03  6.676E-01  1.497E+01  5.241E-02  1.223E+00
   1    8    6     5     4    9.7343E+00  1.3577E-01   9.5985E+00  0.000E+00  0.000E+00  0.000E+00  1.04691E+03  6.637E-01  1.482E+01  3.706E-02  1.221E+00
   1    9    6     6     1    2.4276E+01  2.5176E-01   2.4024E+01  0.000E+00  0.000E+00  0.000E+00  1.04392E+03  1.196E+00  1.200E+01  6.000E-02  1.399E+00
   1   10    7     6     2    2.4024E+01  2.5131E-01   2.3773E+01  0.000E+00  0.000E+00  0.000E+00  1.03937E+03  1.188E+00  1.200E+01  6.000E-02  1.396E+00
   1   11    7     6     3    2.3773E+01  2.5086E-01   2.3522E+01  0.000E+00  0.000E+00  0.000E+00  1.03482E+03  1.181E+00  1.200E+01  6.000E-02  1.394E+00
   1   12    7     6     4    2.3522E+01  2.5041E-01   2.3271E+01  0.000E+00  0.000E+00  0.000E+00  1.03026E+03  1.173E+00  1.200E+01  6.000E-02  1.391E+00
   1   13    7     6     5    2.3271E+01  9.8275E-03   2.3262E+01  0.000E+00  0.000E+00  0.000E+00  1.02708E+03  1.170E+00  1.200E+01  2.400E-02  1.365E-01
   1   14    9     7     1    1.5000E+02  1.3642E+00   1.4864E+02  0.000E+00  0.000E+00  0.000E+00  1.03987E+03  2.288E+00  5.529E+01  5.593E-01  8.130E-01
   1   13    8     7     2    1.4864E+02  1.9510E+00   1.4668E+02  0.000E+00  0.000E+00  0.000E+00  1.03478E+03  2.279E+00  5.525E+01  6.148E-01  1.058E+00
   1   13    7     7     3    1.4668E+02  1.6859E+00   1.4500E+02  0.000E+00  0.000E+00  0.000E+00  1.02969E+03  2.269E+00  5.521E+01  5.584E-01  1.006E+00
   1   13    6     8     1    1.6826E+02  1.1267E+00   1.6713E+02  0.000E+00  0.000E+00  0.000E+00  1.02481E+03  2.937E+00  4.259E+01  4.340E-01  8.654E-01
   1   13    5     8     2    1.6713E+02  3.6974E-01   1.6676E+02  0.000E+00  0.000E+00  0.000E+00  1.01856E+03  2.932E+00  4.252E+01  4.333E-01  2.845E-01
   1   13    4     8     3    1.6676E+02 -1.7768E+00   1.6854E+02  0.000E+00  0.000E+00  0.000E+00  1.01231E+03  2.937E+00  4.258E+01  4.339E+00 -1.365E-01
   1   13    3     8     4    1.6854E+02 -3.3320E+00   1.7187E+02  0.000E+00  0.000E+00  0.000E+00  1.00608E+03  2.954E+00  4.283E+01  4.364E+00 -2.545E-01
   1   13    2     8     5    1.7187E+02 -2.5020E+00   1.7437E+02  0.000E+00  0.000E+00  0.000E+00  9.99847E+02  2.972E+00  4.310E+01  4.392E+00 -1.899E-01
   1   13    1     8     6    1.7437E+02 -1.9637E+00   1.7634E+02  0.000E+00  0.000E+00  0.000E+00  9.94862E+02  2.987E+00  4.331E+01  2.648E+00 -2.472E-01





UNSATURATED ZONE PACKAGE VOLUMETRIC BUDGET FOR  TIME STEP    30 STRESS PERIOD   39
  ------------------------------------------------------------------------------



     CUMULATIVE VOLUMES      L**3       RATES FOR THIS TIME STEP      L**3/T
     ------------------                 ------------------------

           IN:                                      IN:
           ---                                      ---
        INFILTRATION =  1512293621.5192          INFILTRATION =           0.8475

          OUT:                                     OUT:
          ----                                     ----
              UZF ET =  1295139771.2653                UZF ET =           0.7500
        UZF RECHARGE =   216053590.7848          UZF RECHARGE =           0.0002

            IN - OUT =     1100259.4691              IN - OUT =       9.7342E-02

          STORAGE:                                 STORAGE:
          --------                                 --------
      STORAGE CHANGE =     1100238.2695        STORAGE CHANGE =       9.7342E-02

 PERCENT DISCREPANCY IS DIFFERENCE BETWEEN IN-OUT MINUS CHANGE IN STORAGE
 DIVIDED BY THE AVERAGE OF IN AND OUT TIMES 100

 PERCENT DISCREPANCY =           0.00     PERCENT DISCREPANCY =           0.00






1
  VOLUMETRIC BUDGET FOR AGRICULTURAL FIELDS AT  END OF TIME STEP   30, STRESS PERIOD  39
  ------------------------------------------------------------------------------

     CUMULATIVE VOLUMES      L**3       RATES FOR THIS TIME STEP      L**3/T
     ------------------                 ------------------------

           IN:                                      IN:
           ---                                      ---
               AG WELLS  =  1427519104.0000                 AG WELLS  =           0.0000
      DIVERSION SEGMENTS =           0.0000        DIVERSION SEGMENTS =           0.0000
           GW IRRIGATION =           0.0000             GW IRRIGATION =           0.0000
           SW IRRIGATION =           0.0000             SW IRRIGATION =           0.0000
        SYSTEM LOSSES GW =           0.0000          SYSTEM LOSSES GW =           0.0000
        SYSTEM LOSSES SW =           0.0000          SYSTEM LOSSES SW =           0.0000

                TOTAL IN =  1427519104.0000                  TOTAL IN =           0.0000

          OUT:                                     OUT:
          ----                                     ----
               AG WELLS  =           0.0000                 AG WELLS  =           0.0000
      DIVERSION SEGMENTS =           0.0000        DIVERSION SEGMENTS =           0.0000
           GW IRRIGATION =  1427519104.0000             GW IRRIGATION =           0.0000
           SW IRRIGATION =           0.0000             SW IRRIGATION =           0.0000
        SYSTEM LOSSES GW =           0.0000          SYSTEM LOSSES GW =           0.0000
        SYSTEM LOSSES SW =           0.0000          SYSTEM LOSSES SW =           0.0000

               TOTAL OUT =  1427519104.0000                 TOTAL OUT =           0.0000

                IN - OUT =           0.0000                  IN - OUT =           0.0000

     PERCENT DISCREPANCY =           0.00         PERCENT DISCREPANCY =           0.00



1
  VOLUMETRIC BUDGET FOR ENTIRE MODEL AT END OF TIME STEP   30, STRESS PERIOD  39
  ------------------------------------------------------------------------------

     CUMULATIVE VOLUMES      L**3       RATES FOR THIS TIME STEP      L**3/T
     ------------------                 ------------------------

           IN:                                      IN:
           ---                                      ---
             STORAGE     =  1869062144.0000               STORAGE     =           4.6465
       CONSTANT HEAD     =           0.0000         CONSTANT HEAD     =           0.0000
     HEAD DEP BOUNDS     =    28602960.0000       HEAD DEP BOUNDS     =           0.2877
      STREAM LEAKAGE     =  1225943168.0000        STREAM LEAKAGE     =          12.2360
        UZF RECHARGE     =   216053488.0000          UZF RECHARGE     =       1.5772E-04
               GW ET     =           0.0000                 GW ET     =           0.0000
     SURFACE LEAKAGE     =           0.0000       SURFACE LEAKAGE     =           0.0000
           AG WELLS      =           0.0000             AG WELLS      =           0.0000

                TOTAL IN =  3339661824.0000                  TOTAL IN =          17.1704

          OUT:                                     OUT:
          ----                                     ----
             STORAGE     =   844757440.0000               STORAGE     =           7.3077
       CONSTANT HEAD     =           0.0000         CONSTANT HEAD     =           0.0000
     HEAD DEP BOUNDS     =    29232438.0000       HEAD DEP BOUNDS     =           0.2889
      STREAM LEAKAGE     =  1020610048.0000        STREAM LEAKAGE     =           9.5745
        UZF RECHARGE     =           0.0000          UZF RECHARGE     =           0.0000
               GW ET     =    17516984.0000                 GW ET     =           0.0000
     SURFACE LEAKAGE     =           0.0000       SURFACE LEAKAGE     =           0.0000
           AG WELLS      =  1427519104.0000             AG WELLS      =           0.0000

               TOTAL OUT =  3339635968.0000                 TOTAL OUT =          17.1711

                IN - OUT =       25856.0000                  IN - OUT =      -7.5340E-04

     PERCENT DISCREPANCY =           0.00         PERCENT DISCREPANCY =          -0.00






         TIME SUMMARY AT END OF TIME STEP   30 IN STRESS PERIOD   39
                    SECONDS     MINUTES      HOURS       DAYS        YEARS
                    -----------------------------------------------------------
   TIME STEP LENGTH  87667.      1461.1      24.352      1.0147     2.77799E-03
 STRESS PERIOD TIME 2.63000E+06  43833.      730.56      30.440     8.33397E-02
         TOTAL TIME 1.00026E+08 1.66710E+06  27785.      1157.7      3.1696    
1
1
                            STRESS PERIOD NO.   40, LENGTH =   2630000.    
                            -----------------------------------------------

                              NUMBER OF TIME STEPS =    30

                               MULTIPLIER FOR DELT =     1.000

                            INITIAL TIME STEP SIZE =   87666.66    

 REUSING NON-PARAMETER GHB CELLS FROM LAST STRESS PERIOD

      2 GHB CELLS

 REUSING STREAM SEGMENT DATA FROM LAST STRESS PERIOD



            AREAL INFILTRATION RATE
 READING ON UNIT   19 WITH FORMAT: (FREE)              

            1           2           3           4           5           6           7           8           9          10
 ........................................................................................................................
   1   1.0000E-10  2.0000E-10   0.000       0.000       0.000       0.000       0.000       0.000       0.000       0.000    
   2   2.0000E-10  1.0000E-10  2.0000E-10   0.000       0.000      8.0000E-10  8.0000E-10  5.0000E-10   0.000       0.000    
   3    0.000      5.0000E-10  1.0000E-10  1.0000E-10  8.0000E-10  8.0000E-10  5.0000E-10  5.0000E-10   0.000       0.000    
   4   8.0000E-10  5.0000E-10  1.0000E-10  1.0000E-10  1.0000E-10  1.0000E-10  1.0000E-10  1.0000E-10  2.0000E-10   0.000    
   5   8.0000E-10  5.0000E-10  1.0000E-10  1.0000E-10  1.0000E-10  1.0000E-10  1.0000E-10  1.0000E-10  1.0000E-10  1.0000E-10
   6   8.0000E-10  5.0000E-10  5.0000E-10  2.0000E-10  2.0000E-10  1.0000E-10  1.0000E-10  1.0000E-10  1.0000E-10  5.0000E-10
   7   8.0000E-10  5.0000E-10  5.0000E-10  2.0000E-10  2.0000E-10  1.0000E-10  1.0000E-10  2.0000E-10  2.0000E-10   0.000    
   8    0.000      5.0000E-10  5.0000E-10  2.0000E-10  2.0000E-10  1.0000E-10  1.0000E-10  2.0000E-10  5.0000E-10   0.000    
   9    0.000      5.0000E-10  5.0000E-10  2.0000E-10  2.0000E-10  1.0000E-10  1.0000E-10  2.0000E-10  5.0000E-10   0.000    
  10    0.000      5.0000E-10  5.0000E-10  2.0000E-10  2.0000E-10  1.0000E-10  1.0000E-10  2.0000E-10  5.0000E-10  8.0000E-10
  11    0.000      1.0000E-10  1.0000E-10  1.0000E-10  1.0000E-10  1.0000E-10  1.0000E-10  2.0000E-10  5.0000E-10   0.000    
  12   1.0000E-10  1.0000E-10  1.0000E-10  1.0000E-10  1.0000E-10  1.0000E-10  1.0000E-10  1.0000E-10  2.0000E-10   0.000    
  13   1.0000E-10  1.0000E-10  2.0000E-10  2.0000E-10  2.0000E-10  2.0000E-10  2.0000E-10  1.0000E-10  1.0000E-10   0.000    
  14    0.000      2.0000E-10  5.0000E-10  5.0000E-10  5.0000E-10  5.0000E-10  5.0000E-10  2.0000E-10  1.0000E-10   0.000    
  15    0.000       0.000      8.0000E-10  8.0000E-10  8.0000E-10  8.0000E-10   0.000       0.000       0.000       0.000    

                  ET RATE =  5.000000E-10

 USING ET EXTINCTION DEPTH FROM PREVIOUS STRESS PERIOD. CURRENT PERIOD IS:      40

 USING EXTINCTION WATER CONTENT FROM PREVIOUS STRESS PERIOD. CURRENT PERIOD IS:      40

 USING AIR ENTRY PRESSURE FROM PREVIOUS STRESS PERIOD. CURRENT PERIOD IS:      40

 USING ROOT PRESSURE HEAD FROM PREVIOUS STRESS PERIOD. CURRENT PERIOD IS:      40

 USING ROOT ACTIVITY FROM PREVIOUS STRESS PERIOD. CURRENT PERIOD IS:      40

 PROCESSING AG STRESS PERIOD DATA

 READING AG STRESS PERIOD DATA

 READING IRRIGATION WELL

 END PROCESSING AG STRESS PERIOD DATA OPTIONS
 
 SOLVING FOR HEAD 
                                                   Max.-Head-Change                         Max.-Flux-Residual
  Residual-Control   Outer-Iter.   Inner-Iter.     Column Row Layer    Maximum-Head-Change  Column Row Layer    Maximum-Flux-Residual          L2-NORM 
          0                 1           2             4    7     1       0.1186873501E-01       4    7    1         0.6208966774E+00      0.1749305713E+01
          0                 2           2             4    7     1      -0.1153880061E-02       4    7    1        -0.6205598020E-01      0.1748773289E+00
          0                 3           1             4    7     1       0.7851568137E-04       4    7    1         0.4340628941E-02      0.1223623965E-01

    ------------------------------------------------
       NWT REQUIRED            3 OUTER ITERATIONS 
       AND A TOTAL OF          5 INNER ITERATIONS.
    ------------------------------------------------

 NO OUTPUT CONTROL FOR STRESS PERIOD   40   TIME STEP    1
 
 SOLVING FOR HEAD 
                                                   Max.-Head-Change                         Max.-Flux-Residual
  Residual-Control   Outer-Iter.   Inner-Iter.     Column Row Layer    Maximum-Head-Change  Column Row Layer    Maximum-Flux-Residual          L2-NORM 
          0                 1           2             4    7     1       0.1178841150E-01       4    7    1         0.6166793380E+00      0.1740180811E+01
          0                 2           2             4    7     1      -0.1146070970E-02       4    7    1        -0.6163447282E-01      0.1739652422E+00
          0                 3           1             4    7     1       0.7798431177E-04       4    7    1         0.4311145691E-02      0.1217242133E-01

    ------------------------------------------------
       NWT REQUIRED            3 OUTER ITERATIONS 
       AND A TOTAL OF          5 INNER ITERATIONS.
    ------------------------------------------------

 NO OUTPUT CONTROL FOR STRESS PERIOD   40   TIME STEP    2
 
 SOLVING FOR HEAD 
                                                   Max.-Head-Change                         Max.-Flux-Residual
  Residual-Control   Outer-Iter.   Inner-Iter.     Column Row Layer    Maximum-Head-Change  Column Row Layer    Maximum-Flux-Residual          L2-NORM 
          0                 1           2             4    7     1       0.1170894445E-01       4    7    1         0.6125073522E+00      0.1731140284E+01
          0                 2           2             4    7     1      -0.1138345144E-02       4    7    1        -0.6121749837E-01      0.1730615847E+00
          0                 3           1             4    7     1       0.7745860824E-04       4    7    1         0.4281979525E-02      0.1210921958E-01

    ------------------------------------------------
       NWT REQUIRED            3 OUTER ITERATIONS 
       AND A TOTAL OF          5 INNER ITERATIONS.
    ------------------------------------------------

 NO OUTPUT CONTROL FOR STRESS PERIOD   40   TIME STEP    3
 
 SOLVING FOR HEAD 
                                                   Max.-Head-Change                         Max.-Flux-Residual
  Residual-Control   Outer-Iter.   Inner-Iter.     Column Row Layer    Maximum-Head-Change  Column Row Layer    Maximum-Flux-Residual          L2-NORM 
          0                 1           2             4    7     1       0.1163018554E-01       4    7    1         0.6083724510E+00      0.1722187635E+01
          0                 2           2             4    7     1      -0.1130688163E-02       4    7    1        -0.6080423041E-01      0.1721667350E+00
          0                 3           1             4    7     1       0.7693758872E-04       4    7    1         0.4253072607E-02      0.1204660753E-01

    ------------------------------------------------
       NWT REQUIRED            3 OUTER ITERATIONS 
       AND A TOTAL OF          5 INNER ITERATIONS.
    ------------------------------------------------

 NO OUTPUT CONTROL FOR STRESS PERIOD   40   TIME STEP    4
 
 SOLVING FOR HEAD 
                                                   Max.-Head-Change                         Max.-Flux-Residual
  Residual-Control   Outer-Iter.   Inner-Iter.     Column Row Layer    Maximum-Head-Change  Column Row Layer    Maximum-Flux-Residual          L2-NORM 
          0                 1           2             4    7     1       0.1155226361E-01       4    7    1         0.6042815864E+00      0.1713330662E+01
          0                 2           2             4    7     1      -0.1123112555E-02       4    7    1        -0.6039536379E-01      0.1712814348E+00
          0                 3           1             4    7     1       0.7642210664E-04       4    7    1         0.4224473551E-02      0.1198470387E-01

    ------------------------------------------------
       NWT REQUIRED            3 OUTER ITERATIONS 
       AND A TOTAL OF          5 INNER ITERATIONS.
    ------------------------------------------------

 NO OUTPUT CONTROL FOR STRESS PERIOD   40   TIME STEP    5
 
 SOLVING FOR HEAD 
                                                   Max.-Head-Change                         Max.-Flux-Residual
  Residual-Control   Outer-Iter.   Inner-Iter.     Column Row Layer    Maximum-Head-Change  Column Row Layer    Maximum-Flux-Residual          L2-NORM 
          0                 1           2             4    7     1       0.1147529801E-01       4    7    1         0.6002414400E+00      0.1704559759E+01
          0                 2           2             4    7     1      -0.1115629922E-02       4    7    1        -0.5999156632E-01      0.1704047307E+00
          0                 3           1             4    7     1       0.7591295108E-04       4    7    1         0.4196229083E-02      0.1192335591E-01

    ------------------------------------------------
       NWT REQUIRED            3 OUTER ITERATIONS 
       AND A TOTAL OF          5 INNER ITERATIONS.
    ------------------------------------------------

 NO OUTPUT CONTROL FOR STRESS PERIOD   40   TIME STEP    6
 
 SOLVING FOR HEAD 
                                                   Max.-Head-Change                         Max.-Flux-Residual
  Residual-Control   Outer-Iter.   Inner-Iter.     Column Row Layer    Maximum-Head-Change  Column Row Layer    Maximum-Flux-Residual          L2-NORM 
          0                 1           2             4    7     1       0.1139900322E-01       4    7    1         0.5962362336E+00      0.1695874345E+01
          0                 2           2             4    7     1      -0.1108212507E-02       4    7    1        -0.5959126095E-01      0.1695365722E+00
          0                 3           1             4    7     1       0.7540823326E-04       4    7    1         0.4168228878E-02      0.1186261421E-01

    ------------------------------------------------
       NWT REQUIRED            3 OUTER ITERATIONS 
       AND A TOTAL OF          5 INNER ITERATIONS.
    ------------------------------------------------

 NO OUTPUT CONTROL FOR STRESS PERIOD   40   TIME STEP    7
 
 SOLVING FOR HEAD 
                                                   Max.-Head-Change                         Max.-Flux-Residual
  Residual-Control   Outer-Iter.   Inner-Iter.     Column Row Layer    Maximum-Head-Change  Column Row Layer    Maximum-Flux-Residual          L2-NORM 
          0                 1           2             4    7     1       0.1132336945E-01       4    7    1         0.5922658076E+00      0.1687271726E+01
          0                 2           2             4    7     1      -0.1100859355E-02       4    7    1        -0.5919443178E-01      0.1686766829E+00
          0                 3           1             4    7     1       0.7490788797E-04       4    7    1         0.4140471794E-02      0.1180245487E-01

    ------------------------------------------------
       NWT REQUIRED            3 OUTER ITERATIONS 
       AND A TOTAL OF          5 INNER ITERATIONS.
    ------------------------------------------------

 NO OUTPUT CONTROL FOR STRESS PERIOD   40   TIME STEP    8
 
 SOLVING FOR HEAD 
                                                   Max.-Head-Change                         Max.-Flux-Residual
  Residual-Control   Outer-Iter.   Inner-Iter.     Column Row Layer    Maximum-Head-Change  Column Row Layer    Maximum-Flux-Residual          L2-NORM 
          0                 1           2             4    7     1       0.1124866239E-01       4    7    1         0.5883442987E+00      0.1678759997E+01
          0                 2           2             4    7     1      -0.1093596299E-02       4    7    1        -0.5880249173E-01      0.1678259017E+00
          0                 3           1             4    7     1       0.7441367324E-04       4    7    1         0.4113056712E-02      0.1174294675E-01

    ------------------------------------------------
       NWT REQUIRED            3 OUTER ITERATIONS 
       AND A TOTAL OF          5 INNER ITERATIONS.
    ------------------------------------------------

 NO OUTPUT CONTROL FOR STRESS PERIOD   40   TIME STEP    9
 
 SOLVING FOR HEAD 
                                                   Max.-Head-Change                         Max.-Flux-Residual
  Residual-Control   Outer-Iter.   Inner-Iter.     Column Row Layer    Maximum-Head-Change  Column Row Layer    Maximum-Flux-Residual          L2-NORM 
          0                 1           2             4    7     1       0.1117472742E-01       4    7    1         0.5844635156E+00      0.1670326249E+01
          0                 2           2             4    7     1      -0.1086408307E-02       4    7    1        -0.5841462213E-01      0.1669828912E+00
          0                 3           1             4    7     1       0.7392456662E-04       4    7    1         0.4085926344E-02      0.1168396149E-01

    ------------------------------------------------
       NWT REQUIRED            3 OUTER ITERATIONS 
       AND A TOTAL OF          5 INNER ITERATIONS.
    ------------------------------------------------

 NO OUTPUT CONTROL FOR STRESS PERIOD   40   TIME STEP   10
 
 SOLVING FOR HEAD 
                                                   Max.-Head-Change                         Max.-Flux-Residual
  Residual-Control   Outer-Iter.   Inner-Iter.     Column Row Layer    Maximum-Head-Change  Column Row Layer    Maximum-Flux-Residual          L2-NORM 
          0                 1           2             4    7     1       0.1110141694E-01       4    7    1         0.5806154413E+00      0.1661977605E+01
          0                 2           2             4    7     1      -0.1079281028E-02       4    7    1        -0.5803002164E-01      0.1661483963E+00
          0                 3           1             4    7     1       0.7343959090E-04       4    7    1         0.4059024639E-02      0.1162558984E-01

    ------------------------------------------------
       NWT REQUIRED            3 OUTER ITERATIONS 
       AND A TOTAL OF          5 INNER ITERATIONS.
    ------------------------------------------------

 NO OUTPUT CONTROL FOR STRESS PERIOD   40   TIME STEP   11
 
 SOLVING FOR HEAD 
                                                   Max.-Head-Change                         Max.-Flux-Residual
  Residual-Control   Outer-Iter.   Inner-Iter.     Column Row Layer    Maximum-Head-Change  Column Row Layer    Maximum-Flux-Residual          L2-NORM 
          0                 1           2             4    7     1       0.1102899485E-01       4    7    1         0.5768143918E+00      0.1653708420E+01
          0                 2           2             4    7     1      -0.1072240119E-02       4    7    1        -0.5765012113E-01      0.1653218553E+00
          0                 3           1             4    7     1       0.7296049201E-04       4    7    1         0.4032451685E-02      0.1156773557E-01

    ------------------------------------------------
       NWT REQUIRED            3 OUTER ITERATIONS 
       AND A TOTAL OF          5 INNER ITERATIONS.
    ------------------------------------------------

 NO OUTPUT CONTROL FOR STRESS PERIOD   40   TIME STEP   12
 
 SOLVING FOR HEAD 
                                                   Max.-Head-Change                         Max.-Flux-Residual
  Residual-Control   Outer-Iter.   Inner-Iter.     Column Row Layer    Maximum-Head-Change  Column Row Layer    Maximum-Flux-Residual          L2-NORM 
          0                 1           2             4    7     1       0.1095717516E-01       4    7    1         0.5730447571E+00      0.1645522808E+01
          0                 2           2             4    7     1      -0.1065257777E-02       4    7    1        -0.5727336044E-01      0.1645036468E+00
          0                 3           1             4    7     1       0.7248537882E-04       4    7    1         0.4006098357E-02      0.1151052026E-01

    ------------------------------------------------
       NWT REQUIRED            3 OUTER ITERATIONS 
       AND A TOTAL OF          5 INNER ITERATIONS.
    ------------------------------------------------

 NO OUTPUT CONTROL FOR STRESS PERIOD   40   TIME STEP   13
 
 SOLVING FOR HEAD 
                                                   Max.-Head-Change                         Max.-Flux-Residual
  Residual-Control   Outer-Iter.   Inner-Iter.     Column Row Layer    Maximum-Head-Change  Column Row Layer    Maximum-Flux-Residual          L2-NORM 
          0                 1           2             4    7     1       0.1088608759E-01       4    7    1         0.5693136793E+00      0.1637415519E+01
          0                 2           2             4    7     1      -0.1058346611E-02       4    7    1        -0.5690045338E-01      0.1636932714E+00
          0                 3           1             4    7     1       0.7201510867E-04       4    7    1         0.3980014582E-02      0.1145388203E-01

    ------------------------------------------------
       NWT REQUIRED            3 OUTER ITERATIONS 
       AND A TOTAL OF          5 INNER ITERATIONS.
    ------------------------------------------------

 NO OUTPUT CONTROL FOR STRESS PERIOD   40   TIME STEP   14
 
 SOLVING FOR HEAD 
                                                   Max.-Head-Change                         Max.-Flux-Residual
  Residual-Control   Outer-Iter.   Inner-Iter.     Column Row Layer    Maximum-Head-Change  Column Row Layer    Maximum-Flux-Residual          L2-NORM 
          0                 1           2             4    7     1       0.1081571958E-01       4    7    1         0.5656205605E+00      0.1629380764E+01
          0                 2           2             4    7     1      -0.1051505402E-02       4    7    1        -0.5653134019E-01      0.1628901636E+00
          0                 3           1             4    7     1       0.7154959838E-04       4    7    1         0.3954196168E-02      0.1139764917E-01

    ------------------------------------------------
       NWT REQUIRED            3 OUTER ITERATIONS 
       AND A TOTAL OF          5 INNER ITERATIONS.
    ------------------------------------------------

 NO OUTPUT CONTROL FOR STRESS PERIOD   40   TIME STEP   15
 
 SOLVING FOR HEAD 
                                                   Max.-Head-Change                         Max.-Flux-Residual
  Residual-Control   Outer-Iter.   Inner-Iter.     Column Row Layer    Maximum-Head-Change  Column Row Layer    Maximum-Flux-Residual          L2-NORM 
          0                 1           2             4    7     1       0.1074619663E-01       4    7    1         0.5619720733E+00      0.1621432467E+01
          0                 2           2             4    7     1      -0.1044746350E-02       4    7    1        -0.5616668783E-01      0.1620957280E+00
          0                 3           1             4    7     1       0.7108967879E-04       4    7    1         0.3928689784E-02      0.1134212100E-01

    ------------------------------------------------
       NWT REQUIRED            3 OUTER ITERATIONS 
       AND A TOTAL OF          5 INNER ITERATIONS.
    ------------------------------------------------

 NO OUTPUT CONTROL FOR STRESS PERIOD   40   TIME STEP   16
 
 SOLVING FOR HEAD 
                                                   Max.-Head-Change                         Max.-Flux-Residual
  Residual-Control   Outer-Iter.   Inner-Iter.     Column Row Layer    Maximum-Head-Change  Column Row Layer    Maximum-Flux-Residual          L2-NORM 
          0                 1           2             4    7     1       0.1067723114E-01       4    7    1         0.5583527533E+00      0.1613559369E+01
          0                 2           2             4    7     1      -0.1038041494E-02       4    7    1        -0.5580495062E-01      0.1613087193E+00
          0                 3           1             4    7     1       0.7063344703E-04       4    7    1         0.3903387295E-02      0.1128702935E-01

    ------------------------------------------------
       NWT REQUIRED            3 OUTER ITERATIONS 
       AND A TOTAL OF          5 INNER ITERATIONS.
    ------------------------------------------------

 NO OUTPUT CONTROL FOR STRESS PERIOD   40   TIME STEP   17
 
 SOLVING FOR HEAD 
                                                   Max.-Head-Change                         Max.-Flux-Residual
  Residual-Control   Outer-Iter.   Inner-Iter.     Column Row Layer    Maximum-Head-Change  Column Row Layer    Maximum-Flux-Residual          L2-NORM 
          0                 1           2             4    7     1       0.1060895642E-01       4    7    1         0.5547696604E+00      0.1605756048E+01
          0                 2           2             4    7     1      -0.1031403796E-02       4    7    1        -0.5544683417E-01      0.1605287226E+00
          0                 3           1             4    7     1       0.7018178473E-04       4    7    1         0.3878338065E-02      0.1123245239E-01

    ------------------------------------------------
       NWT REQUIRED            3 OUTER ITERATIONS 
       AND A TOTAL OF          5 INNER ITERATIONS.
    ------------------------------------------------

 NO OUTPUT CONTROL FOR STRESS PERIOD   40   TIME STEP   18
 
 SOLVING FOR HEAD 
                                                   Max.-Head-Change                         Max.-Flux-Residual
  Residual-Control   Outer-Iter.   Inner-Iter.     Column Row Layer    Maximum-Head-Change  Column Row Layer    Maximum-Flux-Residual          L2-NORM 
          0                 1           2             4    7     1       0.1054135582E-01       4    7    1         0.5512223830E+00      0.1598024779E+01
          0                 2           2             4    7     1      -0.1024831637E-02       4    7    1        -0.5509229739E-01      0.1597559557E+00
          0                 3           1             4    7     1       0.6973458207E-04       4    7    1         0.3853539234E-02      0.1117839770E-01

    ------------------------------------------------
       NWT REQUIRED            3 OUTER ITERATIONS 
       AND A TOTAL OF          5 INNER ITERATIONS.
    ------------------------------------------------

 NO OUTPUT CONTROL FOR STRESS PERIOD   40   TIME STEP   19
 
 SOLVING FOR HEAD 
                                                   Max.-Head-Change                         Max.-Flux-Residual
  Residual-Control   Outer-Iter.   Inner-Iter.     Column Row Layer    Maximum-Head-Change  Column Row Layer    Maximum-Flux-Residual          L2-NORM 
          0                 1           2             4    7     1       0.1047442610E-01       4    7    1         0.5477100575E+00      0.1590374543E+01
          0                 2           2             4    7     1      -0.1018324700E-02       4    7    1        -0.5474125388E-01      0.1589912760E+00
          0                 3           1             4    7     1       0.6929181797E-04       4    7    1         0.3828984775E-02      0.1113543342E-01

    ------------------------------------------------
       NWT REQUIRED            3 OUTER ITERATIONS 
       AND A TOTAL OF          5 INNER ITERATIONS.
    ------------------------------------------------

 NO OUTPUT CONTROL FOR STRESS PERIOD   40   TIME STEP   20
 
 SOLVING FOR HEAD 
                                                   Max.-Head-Change                         Max.-Flux-Residual
  Residual-Control   Outer-Iter.   Inner-Iter.     Column Row Layer    Maximum-Head-Change  Column Row Layer    Maximum-Flux-Residual          L2-NORM 
          0                 1           2             4    7     1       0.1040815486E-01       4    7    1         0.5442325160E+00      0.1582794670E+01
          0                 2           2             4    7     1      -0.1011881783E-02       4    7    1        -0.5439368698E-01      0.1582336035E+00
          0                 3           1             4    7     1       0.6885340973E-04       4    7    1         0.3804673472E-02      0.1107188788E-01

    ------------------------------------------------
       NWT REQUIRED            3 OUTER ITERATIONS 
       AND A TOTAL OF          5 INNER ITERATIONS.
    ------------------------------------------------

 NO OUTPUT CONTROL FOR STRESS PERIOD   40   TIME STEP   21
 
 SOLVING FOR HEAD 
                                                   Max.-Head-Change                         Max.-Flux-Residual
  Residual-Control   Outer-Iter.   Inner-Iter.     Column Row Layer    Maximum-Head-Change  Column Row Layer    Maximum-Flux-Residual          L2-NORM 
          0                 1           2             4    7     1       0.1034253321E-01       4    7    1         0.5407891154E+00      0.1575282498E+01
          0                 2           2             4    7     1      -0.1005502018E-02       4    7    1        -0.5404953232E-01      0.1574827275E+00
          0                 3           1             4    7     1       0.6841929876E-04       4    7    1         0.3780600823E-02      0.1101937524E-01

    ------------------------------------------------
       NWT REQUIRED            3 OUTER ITERATIONS 
       AND A TOTAL OF          5 INNER ITERATIONS.
    ------------------------------------------------

 NO OUTPUT CONTROL FOR STRESS PERIOD   40   TIME STEP   22
 
 SOLVING FOR HEAD 
                                                   Max.-Head-Change                         Max.-Flux-Residual
  Residual-Control   Outer-Iter.   Inner-Iter.     Column Row Layer    Maximum-Head-Change  Column Row Layer    Maximum-Flux-Residual          L2-NORM 
          0                 1           2             4    7     1       0.1027754968E-01       4    7    1         0.5373793952E+00      0.1567844142E+01
          0                 2           2             4    7     1      -0.9991842923E-03       4    7    1        -0.5370874393E-01      0.1567392290E+00
          0                 3           1             4    7     1       0.6798940898E-04       4    7    1         0.3756763669E-02      0.1096734359E-01

    ------------------------------------------------
       NWT REQUIRED            3 OUTER ITERATIONS 
       AND A TOTAL OF          5 INNER ITERATIONS.
    ------------------------------------------------

 NO OUTPUT CONTROL FOR STRESS PERIOD   40   TIME STEP   23
 
 SOLVING FOR HEAD 
                                                   Max.-Head-Change                         Max.-Flux-Residual
  Residual-Control   Outer-Iter.   Inner-Iter.     Column Row Layer    Maximum-Head-Change  Column Row Layer    Maximum-Flux-Residual          L2-NORM 
          0                 1           2             4    7     1       0.1021319697E-01       4    7    1         0.5340027600E+00      0.1560473529E+01
          0                 2           2             4    7     1      -0.9929278951E-03       4    7    1        -0.5337126228E-01      0.1560024806E+00
          0                 3           1             4    7     1       0.6756369246E-04       4    7    1         0.3733157792E-02      0.1091580666E-01

    ------------------------------------------------
       NWT REQUIRED            3 OUTER ITERATIONS 
       AND A TOTAL OF          5 INNER ITERATIONS.
    ------------------------------------------------

 NO OUTPUT CONTROL FOR STRESS PERIOD   40   TIME STEP   24
 
 SOLVING FOR HEAD 
                                                   Max.-Head-Change                         Max.-Flux-Residual
  Residual-Control   Outer-Iter.   Inner-Iter.     Column Row Layer    Maximum-Head-Change  Column Row Layer    Maximum-Flux-Residual          L2-NORM 
          0                 1           2             4    7     1       0.1014946600E-01       4    7    1         0.5306588317E+00      0.1553176214E+01
          0                 2           2             4    7     1      -0.9867319434E-03       4    7    1        -0.5303704954E-01      0.1552730763E+00
          0                 3           1             4    7     1       0.6714208861E-04       4    7    1         0.3709780553E-02      0.1086478826E-01

    ------------------------------------------------
       NWT REQUIRED            3 OUTER ITERATIONS 
       AND A TOTAL OF          5 INNER ITERATIONS.
    ------------------------------------------------

 NO OUTPUT CONTROL FOR STRESS PERIOD   40   TIME STEP   25
 
 SOLVING FOR HEAD 
                                                   Max.-Head-Change                         Max.-Flux-Residual
  Residual-Control   Outer-Iter.   Inner-Iter.     Column Row Layer    Maximum-Head-Change  Column Row Layer    Maximum-Flux-Residual          L2-NORM 
          0                 1           2             4    7     1       0.1008648226E-01       4    7    1         0.5273544651E+00      0.1545947047E+01
          0                 2           2             4    7     1      -0.9806086392E-03       4    7    1        -0.5270679090E-01      0.1545504855E+00
          0                 3           1             4    7     1       0.6672542839E-04       4    7    1         0.3686679904E-02      0.1081424015E-01

    ------------------------------------------------
       NWT REQUIRED            3 OUTER ITERATIONS 
       AND A TOTAL OF          5 INNER ITERATIONS.
    ------------------------------------------------

 NO OUTPUT CONTROL FOR STRESS PERIOD   40   TIME STEP   26
 
 SOLVING FOR HEAD 
                                                   Max.-Head-Change                         Max.-Flux-Residual
  Residual-Control   Outer-Iter.   Inner-Iter.     Column Row Layer    Maximum-Head-Change  Column Row Layer    Maximum-Flux-Residual          L2-NORM 
          0                 1           2             4    7     1       0.1002396074E-01       4    7    1         0.5240741906E+00      0.1538779424E+01
          0                 2           2             4    7     1      -0.9745302716E-03       4    7    1        -0.5237894017E-01      0.1538340326E+00
          0                 3           1             4    7     1       0.6631182646E-04       4    7    1         0.3663747716E-02      0.1076411700E-01

    ------------------------------------------------
       NWT REQUIRED            3 OUTER ITERATIONS 
       AND A TOTAL OF          5 INNER ITERATIONS.
    ------------------------------------------------

 NO OUTPUT CONTROL FOR STRESS PERIOD   40   TIME STEP   27
 
 SOLVING FOR HEAD 
                                                   Max.-Head-Change                         Max.-Flux-Residual
  Residual-Control   Outer-Iter.   Inner-Iter.     Column Row Layer    Maximum-Head-Change  Column Row Layer    Maximum-Flux-Residual          L2-NORM 
          0                 1           2             4    7     1       0.9962034608E-02       4    7    1         0.5208252060E+00      0.1531679022E+01
          0                 2           2             4    7     1      -0.9685097882E-03       4    7    1        -0.5205421676E-01      0.1531243050E+00
          0                 3           1             4    7     1       0.6590216219E-04       4    7    1         0.3641034232E-02      0.1071447284E-01

    ------------------------------------------------
       NWT REQUIRED            3 OUTER ITERATIONS 
       AND A TOTAL OF          5 INNER ITERATIONS.
    ------------------------------------------------

 NO OUTPUT CONTROL FOR STRESS PERIOD   40   TIME STEP   28
 
 SOLVING FOR HEAD 
                                                   Max.-Head-Change                         Max.-Flux-Residual
  Residual-Control   Outer-Iter.   Inner-Iter.     Column Row Layer    Maximum-Head-Change  Column Row Layer    Maximum-Flux-Residual          L2-NORM 
          0                 1           2             4    7     1       0.9900829825E-02       4    7    1         0.5176144177E+00      0.1524650498E+01
          0                 2           2             4    7     1      -0.9625594359E-03       4    7    1        -0.5173331099E-01      0.1524217526E+00
          0                 3           1             4    7     1       0.6549727090E-04       4    7    1         0.3618587811E-02      0.1066532003E-01

    ------------------------------------------------
       NWT REQUIRED            3 OUTER ITERATIONS 
       AND A TOTAL OF          5 INNER ITERATIONS.
    ------------------------------------------------

 NO OUTPUT CONTROL FOR STRESS PERIOD   40   TIME STEP   29
 
 SOLVING FOR HEAD 
                                                   Max.-Head-Change                         Max.-Flux-Residual
  Residual-Control   Outer-Iter.   Inner-Iter.     Column Row Layer    Maximum-Head-Change  Column Row Layer    Maximum-Flux-Residual          L2-NORM 
          0                 1           2             4    7     1       0.9840063020E-02       4    7    1         0.5144263781E+00      0.1517677570E+01
          0                 2           2             4    7     1      -0.9566516626E-03       4    7    1        -0.5141467880E-01      0.1517254328E+00
          0                 3           1             4    7     1       0.6509527650E-04       4    7    1         0.3596300411E-02      0.1061659703E-01

    ------------------------------------------------
       NWT REQUIRED            3 OUTER ITERATIONS 
       AND A TOTAL OF          5 INNER ITERATIONS.
    ------------------------------------------------

 NO OUTPUT CONTROL FOR STRESS PERIOD   40   TIME STEP   30



 STREAM LISTING     PERIOD     40   STEP       30

 LAYER ROW COL. STREAM  RCH.  FLOW INTO     FLOW TO   FLOW OUT OF   OVRLND.     DIRECT     STREAM       STREAM     STREAM     STREAM   STREAMBED  STREAMBED
                SEG.NO.  NO.  STRM. RCH.    AQUIFER    STRM. RCH.    RUNOFF     PRECIP       ET          HEAD       DEPTH      WIDTH   CONDCTNC.   GRADIENT

   1    1    1     1     1    1.9000E+01  2.1427E-01   1.8786E+01  0.000E+00  0.000E+00  0.000E+00  1.09413E+03  1.082E+00  1.166E+01  5.249E-02  1.361E+00
   1    2    2     1     2    1.8786E+01  3.3054E-01   1.8455E+01  0.000E+00  0.000E+00  0.000E+00  1.08914E+03  1.077E+00  1.158E+01  8.107E-02  1.359E+00
   1    3    3     1     3    1.8455E+01  2.8064E-01   1.8175E+01  0.000E+00  0.000E+00  0.000E+00  1.08349E+03  1.072E+00  1.149E+01  6.892E-02  1.357E+00
   1    3    4     1     4    1.8175E+01  2.5740E-01   1.7917E+01  0.000E+00  0.000E+00  0.000E+00  1.07848E+03  1.068E+00  1.140E+01  6.328E-02  1.356E+00
   1    4    5     2     1    1.5917E+01  3.0542E-01   1.5612E+01  0.000E+00  0.000E+00  0.000E+00  1.07285E+03  9.157E-01  1.200E+01  7.800E-02  1.305E+00
   1    5    6     2     2    1.5612E+01  2.3438E-01   1.5377E+01  0.000E+00  0.000E+00  0.000E+00  1.06742E+03  9.063E-01  1.200E+01  6.000E-02  1.302E+00
   1    6    6     2     3    1.5377E+01  2.3388E-01   1.5143E+01  0.000E+00  0.000E+00  0.000E+00  1.06269E+03  8.980E-01  1.200E+01  6.000E-02  1.299E+00
   1    7    6     2     4    1.5143E+01  2.3338E-01   1.4910E+01  0.000E+00  0.000E+00  0.000E+00  1.05797E+03  8.897E-01  1.200E+01  6.000E-02  1.297E+00
   1    8    6     2     5    1.4910E+01  2.3289E-01   1.4677E+01  0.000E+00  0.000E+00  0.000E+00  1.05324E+03  8.814E-01  1.200E+01  6.000E-02  1.294E+00
   1    3    5     3     1    2.0000E+00  2.8252E-01   1.7175E+00  0.000E+00  0.000E+00  0.000E+00  1.07555E+03  1.909E+00  9.636E+00  7.227E-02  1.955E+00
   1    3    6     3     2    1.7175E+00  2.4905E-01   1.4684E+00  0.000E+00  0.000E+00  0.000E+00  1.07264E+03  1.727E+00  8.909E+00  6.682E-02  1.864E+00
   1    3    7     3     3    1.4684E+00  1.9718E-01   1.2712E+00  0.000E+00  0.000E+00  0.000E+00  1.06987E+03  1.555E+00  8.218E+00  5.547E-02  1.777E+00
   1    4    8     3     4    1.2712E+00  2.2567E-01   1.0456E+00  0.000E+00  0.000E+00  0.000E+00  1.06682E+03  1.364E+00  7.455E+00  6.709E-02  1.682E+00
   1    5    8     3     5    1.0456E+00  1.5790E-01   8.8768E-01  0.000E+00  0.000E+00  0.000E+00  1.06362E+03  1.164E+00  6.655E+00  4.991E-02  1.582E+00
   1    6    8     3     6    8.8768E-01  5.5980E-02   8.3170E-01  0.000E+00  0.000E+00  0.000E+00  1.06158E+03  1.036E+00  6.145E+00  1.844E-02  1.518E+00
   1    5   10     4     1    1.0000E+01  9.0919E-02   9.9091E+00  0.000E+00  0.000E+00  0.000E+00  1.07836E+03  6.368E-01  1.000E+01  2.500E-02  1.212E+00
   1    5    9     4     2    9.9091E+00  1.8158E-01   9.7275E+00  0.000E+00  0.000E+00  0.000E+00  1.07154E+03  6.315E-01  1.000E+01  5.000E-02  1.211E+00
   1    6    8     4     3    9.7275E+00  1.2689E-01   9.6006E+00  0.000E+00  0.000E+00  0.000E+00  1.06381E+03  6.256E-01  1.000E+01  3.500E-02  1.209E+00
   1    6    8     5     1    1.0432E+01  2.2686E-01   1.0205E+01  0.000E+00  0.000E+00  0.000E+00  1.05868E+03  6.790E-01  1.542E+01  6.166E-02  1.226E+00
   1    7    7     5     2    1.0205E+01  2.7894E-01   9.9265E+00  0.000E+00  0.000E+00  0.000E+00  1.05417E+03  6.732E-01  1.519E+01  7.594E-02  1.224E+00
   1    8    7     5     3    9.9265E+00  1.9221E-01   9.7343E+00  0.000E+00  0.000E+00  0.000E+00  1.04992E+03  6.676E-01  1.497E+01  5.241E-02  1.223E+00
   1    8    6     5     4    9.7343E+00  1.3577E-01   9.5985E+00  0.000E+00  0.000E+00  0.000E+00  1.04691E+03  6.637E-01  1.482E+01  3.706E-02  1.221E+00
   1    9    6     6     1    2.4276E+01  2.5176E-01   2.4024E+01  0.000E+00  0.000E+00  0.000E+00  1.04392E+03  1.196E+00  1.200E+01  6.000E-02  1.399E+00
   1   10    7     6     2    2.4024E+01  2.5131E-01   2.3773E+01  0.000E+00  0.000E+00  0.000E+00  1.03937E+03  1.188E+00  1.200E+01  6.000E-02  1.396E+00
   1   11    7     6     3    2.3773E+01  2.5086E-01   2.3522E+01  0.000E+00  0.000E+00  0.000E+00  1.03482E+03  1.181E+00  1.200E+01  6.000E-02  1.394E+00
   1   12    7     6     4    2.3522E+01  2.5041E-01   2.3271E+01  0.000E+00  0.000E+00  0.000E+00  1.03026E+03  1.173E+00  1.200E+01  6.000E-02  1.391E+00
   1   13    7     6     5    2.3271E+01  1.0331E-02   2.3261E+01  0.000E+00  0.000E+00  0.000E+00  1.02708E+03  1.170E+00  1.200E+01  2.400E-02  1.435E-01
   1   14    9     7     1    1.5000E+02  1.3662E+00   1.4863E+02  0.000E+00  0.000E+00  0.000E+00  1.03987E+03  2.288E+00  5.529E+01  5.593E-01  8.142E-01
   1   13    8     7     2    1.4863E+02  1.9580E+00   1.4668E+02  0.000E+00  0.000E+00  0.000E+00  1.03478E+03  2.279E+00  5.525E+01  6.147E-01  1.062E+00
   1   13    7     7     3    1.4668E+02  1.6976E+00   1.4498E+02  0.000E+00  0.000E+00  0.000E+00  1.02969E+03  2.269E+00  5.521E+01  5.584E-01  1.013E+00
   1   13    6     8     1    1.6824E+02  1.1364E+00   1.6710E+02  0.000E+00  0.000E+00  0.000E+00  1.02481E+03  2.937E+00  4.259E+01  4.340E-01  8.729E-01
   1   13    5     8     2    1.6710E+02  3.7686E-01   1.6673E+02  0.000E+00  0.000E+00  0.000E+00  1.01856E+03  2.932E+00  4.251E+01  4.332E-01  2.900E-01
   1   13    4     8     3    1.6673E+02 -1.7573E+00   1.6848E+02  0.000E+00  0.000E+00  0.000E+00  1.01231E+03  2.937E+00  4.258E+01  4.339E+00 -1.350E-01
   1   13    3     8     4    1.6848E+02 -3.3193E+00   1.7180E+02  0.000E+00  0.000E+00  0.000E+00  1.00608E+03  2.953E+00  4.282E+01  4.364E+00 -2.536E-01
   1   13    2     8     5    1.7180E+02 -2.4980E+00   1.7430E+02  0.000E+00  0.000E+00  0.000E+00  9.99847E+02  2.972E+00  4.309E+01  4.391E+00 -1.896E-01
   1   13    1     8     6    1.7430E+02 -1.9625E+00   1.7626E+02  0.000E+00  0.000E+00  0.000E+00  9.94861E+02  2.986E+00  4.330E+01  2.648E+00 -2.471E-01





UNSATURATED ZONE PACKAGE VOLUMETRIC BUDGET FOR  TIME STEP    30 STRESS PERIOD   40
  ------------------------------------------------------------------------------



     CUMULATIVE VOLUMES      L**3       RATES FOR THIS TIME STEP      L**3/T
     ------------------                 ------------------------

           IN:                                      IN:
           ---                                      ---
        INFILTRATION =  1514522546.3919          INFILTRATION =           0.8475

          OUT:                                     OUT:
          ----                                     ----
              UZF ET =  1297112271.1451                UZF ET =           0.7500
        UZF RECHARGE =   216053968.0352          UZF RECHARGE =           0.0001

            IN - OUT =     1356307.2116              IN - OUT =       9.7369E-02

          STORAGE:                                 STORAGE:
          --------                                 --------
      STORAGE CHANGE =     1356286.0325        STORAGE CHANGE =       9.7369E-02

 PERCENT DISCREPANCY IS DIFFERENCE BETWEEN IN-OUT MINUS CHANGE IN STORAGE
 DIVIDED BY THE AVERAGE OF IN AND OUT TIMES 100

 PERCENT DISCREPANCY =           0.00     PERCENT DISCREPANCY =           0.00






1
  VOLUMETRIC BUDGET FOR AGRICULTURAL FIELDS AT  END OF TIME STEP   30, STRESS PERIOD  40
  ------------------------------------------------------------------------------

     CUMULATIVE VOLUMES      L**3       RATES FOR THIS TIME STEP      L**3/T
     ------------------                 ------------------------

           IN:                                      IN:
           ---                                      ---
               AG WELLS  =  1427519104.0000                 AG WELLS  =           0.0000
      DIVERSION SEGMENTS =           0.0000        DIVERSION SEGMENTS =           0.0000
           GW IRRIGATION =           0.0000             GW IRRIGATION =           0.0000
           SW IRRIGATION =           0.0000             SW IRRIGATION =           0.0000
        SYSTEM LOSSES GW =           0.0000          SYSTEM LOSSES GW =           0.0000
        SYSTEM LOSSES SW =           0.0000          SYSTEM LOSSES SW =           0.0000

                TOTAL IN =  1427519104.0000                  TOTAL IN =           0.0000

          OUT:                                     OUT:
          ----                                     ----
               AG WELLS  =           0.0000                 AG WELLS  =           0.0000
      DIVERSION SEGMENTS =           0.0000        DIVERSION SEGMENTS =           0.0000
           GW IRRIGATION =  1427519104.0000             GW IRRIGATION =           0.0000
           SW IRRIGATION =           0.0000             SW IRRIGATION =           0.0000
        SYSTEM LOSSES GW =           0.0000          SYSTEM LOSSES GW =           0.0000
        SYSTEM LOSSES SW =           0.0000          SYSTEM LOSSES SW =           0.0000

               TOTAL OUT =  1427519104.0000                 TOTAL OUT =           0.0000

                IN - OUT =           0.0000                  IN - OUT =           0.0000

     PERCENT DISCREPANCY =           0.00         PERCENT DISCREPANCY =           0.00



1
  VOLUMETRIC BUDGET FOR ENTIRE MODEL AT END OF TIME STEP   30, STRESS PERIOD  40
  ------------------------------------------------------------------------------

     CUMULATIVE VOLUMES      L**3       RATES FOR THIS TIME STEP      L**3/T
     ------------------                 ------------------------

           IN:                                      IN:
           ---                                      ---
             STORAGE     =  1880270080.0000               STORAGE     =           3.9311
       CONSTANT HEAD     =           0.0000         CONSTANT HEAD     =           0.0000
     HEAD DEP BOUNDS     =    29359770.0000       HEAD DEP BOUNDS     =           0.2878
      STREAM LEAKAGE     =  1258176768.0000        STREAM LEAKAGE     =          12.2740
        UZF RECHARGE     =   216053968.0000          UZF RECHARGE     =       1.3133E-04
               GW ET     =           0.0000                 GW ET     =           0.0000
     SURFACE LEAKAGE     =           0.0000       SURFACE LEAKAGE     =           0.0000
           AG WELLS      =           0.0000             AG WELLS      =           0.0000

                TOTAL IN =  3383860480.0000                  TOTAL IN =          16.4931

          OUT:                                     OUT:
          ----                                     ----
             STORAGE     =   863070592.0000               STORAGE     =           6.6679
       CONSTANT HEAD     =           0.0000         CONSTANT HEAD     =           0.0000
     HEAD DEP BOUNDS     =    29992274.0000       HEAD DEP BOUNDS     =           0.2889
      STREAM LEAKAGE     =  1045737664.0000        STREAM LEAKAGE     =           9.5371
        UZF RECHARGE     =           0.0000          UZF RECHARGE     =           0.0000
               GW ET     =    17516984.0000                 GW ET     =           0.0000
     SURFACE LEAKAGE     =           0.0000       SURFACE LEAKAGE     =           0.0000
           AG WELLS      =  1427519104.0000             AG WELLS      =           0.0000

               TOTAL OUT =  3383836672.0000                 TOTAL OUT =          16.4938

                IN - OUT =       23808.0000                  IN - OUT =      -7.7820E-04

     PERCENT DISCREPANCY =           0.00         PERCENT DISCREPANCY =          -0.00






         TIME SUMMARY AT END OF TIME STEP   30 IN STRESS PERIOD   40
                    SECONDS     MINUTES      HOURS       DAYS        YEARS
                    -----------------------------------------------------------
   TIME STEP LENGTH  87667.      1461.1      24.352      1.0147     2.77799E-03
 STRESS PERIOD TIME 2.63000E+06  43833.      730.56      30.440     8.33397E-02
         TOTAL TIME 1.02656E+08 1.71093E+06  28515.      1188.1      3.2530    
1
1
                            STRESS PERIOD NO.   41, LENGTH =   2630000.    
                            -----------------------------------------------

                              NUMBER OF TIME STEPS =    30

                               MULTIPLIER FOR DELT =     1.000

                            INITIAL TIME STEP SIZE =   87666.66    

 REUSING NON-PARAMETER GHB CELLS FROM LAST STRESS PERIOD

      2 GHB CELLS

 REUSING STREAM SEGMENT DATA FROM LAST STRESS PERIOD



            AREAL INFILTRATION RATE
 READING ON UNIT   19 WITH FORMAT: (FREE)              

            1           2           3           4           5           6           7           8           9          10
 ........................................................................................................................
   1   1.0000E-10  2.0000E-10   0.000       0.000       0.000       0.000       0.000       0.000       0.000       0.000    
   2   2.0000E-10  1.0000E-10  2.0000E-10   0.000       0.000      8.0000E-10  8.0000E-10  5.0000E-10   0.000       0.000    
   3    0.000      5.0000E-10  1.0000E-10  1.0000E-10  8.0000E-10  8.0000E-10  5.0000E-10  5.0000E-10   0.000       0.000    
   4   8.0000E-10  5.0000E-10  1.0000E-10  1.0000E-10  1.0000E-10  1.0000E-10  1.0000E-10  1.0000E-10  2.0000E-10   0.000    
   5   8.0000E-10  5.0000E-10  1.0000E-10  1.0000E-10  1.0000E-10  1.0000E-10  1.0000E-10  1.0000E-10  1.0000E-10  1.0000E-10
   6   8.0000E-10  5.0000E-10  5.0000E-10  2.0000E-10  2.0000E-10  1.0000E-10  1.0000E-10  1.0000E-10  1.0000E-10  5.0000E-10
   7   8.0000E-10  5.0000E-10  5.0000E-10  2.0000E-10  2.0000E-10  1.0000E-10  1.0000E-10  2.0000E-10  2.0000E-10   0.000    
   8    0.000      5.0000E-10  5.0000E-10  2.0000E-10  2.0000E-10  1.0000E-10  1.0000E-10  2.0000E-10  5.0000E-10   0.000    
   9    0.000      5.0000E-10  5.0000E-10  2.0000E-10  2.0000E-10  1.0000E-10  1.0000E-10  2.0000E-10  5.0000E-10   0.000    
  10    0.000      5.0000E-10  5.0000E-10  2.0000E-10  2.0000E-10  1.0000E-10  1.0000E-10  2.0000E-10  5.0000E-10  8.0000E-10
  11    0.000      1.0000E-10  1.0000E-10  1.0000E-10  1.0000E-10  1.0000E-10  1.0000E-10  2.0000E-10  5.0000E-10   0.000    
  12   1.0000E-10  1.0000E-10  1.0000E-10  1.0000E-10  1.0000E-10  1.0000E-10  1.0000E-10  1.0000E-10  2.0000E-10   0.000    
  13   1.0000E-10  1.0000E-10  2.0000E-10  2.0000E-10  2.0000E-10  2.0000E-10  2.0000E-10  1.0000E-10  1.0000E-10   0.000    
  14    0.000      2.0000E-10  5.0000E-10  5.0000E-10  5.0000E-10  5.0000E-10  5.0000E-10  2.0000E-10  1.0000E-10   0.000    
  15    0.000       0.000      8.0000E-10  8.0000E-10  8.0000E-10  8.0000E-10   0.000       0.000       0.000       0.000    

                  ET RATE =  2.500000E-08

 USING ET EXTINCTION DEPTH FROM PREVIOUS STRESS PERIOD. CURRENT PERIOD IS:      41

 USING EXTINCTION WATER CONTENT FROM PREVIOUS STRESS PERIOD. CURRENT PERIOD IS:      41

 USING AIR ENTRY PRESSURE FROM PREVIOUS STRESS PERIOD. CURRENT PERIOD IS:      41

 USING ROOT PRESSURE HEAD FROM PREVIOUS STRESS PERIOD. CURRENT PERIOD IS:      41

 USING ROOT ACTIVITY FROM PREVIOUS STRESS PERIOD. CURRENT PERIOD IS:      41

 PROCESSING AG STRESS PERIOD DATA

 READING AG STRESS PERIOD DATA

 READING IRRIGATION WELL

 END PROCESSING AG STRESS PERIOD DATA OPTIONS
 
 SOLVING FOR HEAD 
                                                   Max.-Head-Change                         Max.-Flux-Residual
  Residual-Control   Outer-Iter.   Inner-Iter.     Column Row Layer    Maximum-Head-Change  Column Row Layer    Maximum-Flux-Residual          L2-NORM 
          0                 1           2             3    7     1       0.8887276039E-02       4    9    1         0.3052447533E+00      0.1151245459E+01
          0                 2           2             3    7     1      -0.8644900471E-03       4    9    1        -0.3052448835E-01      0.1151237947E+00
          0                 3           1             3    7     1       0.5886863880E-04       4    9    1         0.2136714988E-02      0.8058586971E-02

    ------------------------------------------------
       NWT REQUIRED            3 OUTER ITERATIONS 
       AND A TOTAL OF          5 INNER ITERATIONS.
    ------------------------------------------------

 NO OUTPUT CONTROL FOR STRESS PERIOD   41   TIME STEP    1
 
 SOLVING FOR HEAD 
                                                   Max.-Head-Change                         Max.-Flux-Residual
  Residual-Control   Outer-Iter.   Inner-Iter.     Column Row Layer    Maximum-Head-Change  Column Row Layer    Maximum-Flux-Residual          L2-NORM 
          0                 1           2             3    7     1       0.8736095502E-02       4    9    1         0.2962537021E+00      0.1122823254E+01
          0                 2           2             3    7     1      -0.8497842828E-03       4    9    1        -0.2962538294E-01      0.1122815653E+00
          0                 3           1             3    7     1       0.5786722650E-04       4    9    1         0.2073777585E-02      0.7859640739E-02

    ------------------------------------------------
       NWT REQUIRED            3 OUTER ITERATIONS 
       AND A TOTAL OF          5 INNER ITERATIONS.
    ------------------------------------------------

 NO OUTPUT CONTROL FOR STRESS PERIOD   41   TIME STEP    2
 
 SOLVING FOR HEAD 
                                                   Max.-Head-Change                         Max.-Flux-Residual
  Residual-Control   Outer-Iter.   Inner-Iter.     Column Row Layer    Maximum-Head-Change  Column Row Layer    Maximum-Flux-Residual          L2-NORM 
          0                 1           2             3    7     1       0.8587414080E-02       4    9    1         0.2876029724E+00      0.1096044015E+01
          0                 2           2             3    7     1      -0.8353216156E-03       4    9    1        -0.2876030967E-01      0.1096036357E+00
          0                 3           1             3    7     1       0.5688236890E-04       4    9    1         0.2013222426E-02      0.7672141854E-02

    ------------------------------------------------
       NWT REQUIRED            3 OUTER ITERATIONS 
       AND A TOTAL OF          5 INNER ITERATIONS.
    ------------------------------------------------

 NO OUTPUT CONTROL FOR STRESS PERIOD   41   TIME STEP    3
 
 SOLVING FOR HEAD 
                                                   Max.-Head-Change                         Max.-Flux-Residual
  Residual-Control   Outer-Iter.   Inner-Iter.     Column Row Layer    Maximum-Head-Change  Column Row Layer    Maximum-Flux-Residual          L2-NORM 
          0                 1           2             3    7     1       0.8441235881E-02       4    9    1         0.2792946858E+00      0.1070788471E+01
          0                 2           2             3    7     1      -0.8211024461E-03       4    9    1        -0.2792948072E-01      0.1070780355E+00
          0                 3           1             3    7     1       0.5591409263E-04       4    9    1         0.1955064376E-02      0.7495373004E-02

    ------------------------------------------------
       NWT REQUIRED            3 OUTER ITERATIONS 
       AND A TOTAL OF          5 INNER ITERATIONS.
    ------------------------------------------------

 NO OUTPUT CONTROL FOR STRESS PERIOD   41   TIME STEP    4
 
 SOLVING FOR HEAD 
                                                   Max.-Head-Change                         Max.-Flux-Residual
  Residual-Control   Outer-Iter.   Inner-Iter.     Column Row Layer    Maximum-Head-Change  Column Row Layer    Maximum-Flux-Residual          L2-NORM 
          0                 1           2             3    7     1       0.8297563165E-02       4    9    1         0.2712986802E+00      0.1046948524E+01
          0                 2           2             3    7     1      -0.8071269931E-03       4    9    1        -0.2712987987E-01      0.1046940373E+00
          0                 3           1             3    7     1       0.5496241331E-04       4    9    1         0.1899092313E-02      0.7328503243E-02

    ------------------------------------------------
       NWT REQUIRED            3 OUTER ITERATIONS 
       AND A TOTAL OF          5 INNER ITERATIONS.
    ------------------------------------------------

 NO OUTPUT CONTROL FOR STRESS PERIOD   41   TIME STEP    5
 
 SOLVING FOR HEAD 
                                                   Max.-Head-Change                         Max.-Flux-Residual
  Residual-Control   Outer-Iter.   Inner-Iter.     Column Row Layer    Maximum-Head-Change  Column Row Layer    Maximum-Flux-Residual          L2-NORM 
          0                 1           2             3    7     1       0.8156393360E-02       4    9    1         0.2636238796E+00      0.1024417745E+01
          0                 2           2             3    7     1      -0.7933950066E-03       4    9    1        -0.2636239951E-01      0.1024409334E+00
          0                 3           1             3    7     1       0.5402731319E-04       4    9    1         0.1845368656E-02      0.7170789109E-02

    ------------------------------------------------
       NWT REQUIRED            3 OUTER ITERATIONS 
       AND A TOTAL OF          5 INNER ITERATIONS.
    ------------------------------------------------

 NO OUTPUT CONTROL FOR STRESS PERIOD   41   TIME STEP    6
 
 SOLVING FOR HEAD 
                                                   Max.-Head-Change                         Max.-Flux-Residual
  Residual-Control   Outer-Iter.   Inner-Iter.     Column Row Layer    Maximum-Head-Change  Column Row Layer    Maximum-Flux-Residual          L2-NORM 
          0                 1           2             3    7     1       0.8017477954E-02       4    9    1         0.2562524973E+00      0.1003123061E+01
          0                 2           2             3    7     1      -0.7798823125E-03       4    9    1        -0.2562526099E-01      0.1003114822E+00
          0                 3           1             3    7     1       0.5310714668E-04       4    9    1         0.1793768939E-02      0.7021744242E-02

    ------------------------------------------------
       NWT REQUIRED            3 OUTER ITERATIONS 
       AND A TOTAL OF          5 INNER ITERATIONS.
    ------------------------------------------------

 NO OUTPUT CONTROL FOR STRESS PERIOD   41   TIME STEP    7
 
 SOLVING FOR HEAD 
                                                   Max.-Head-Change                         Max.-Flux-Residual
  Residual-Control   Outer-Iter.   Inner-Iter.     Column Row Layer    Maximum-Head-Change  Column Row Layer    Maximum-Flux-Residual          L2-NORM 
          0                 1           2             3    7     1       0.7881297108E-02       4    9    1         0.2491673861E+00      0.9829601060E+00
          0                 2           2             3    7     1      -0.7666356176E-03       4    9    1        -0.2491674958E-01      0.9829511633E-01
          0                 3           1             3    7     1       0.5220509325E-04       4    9    1         0.1744173103E-02      0.6880541686E-02

    ------------------------------------------------
       NWT REQUIRED            3 OUTER ITERATIONS 
       AND A TOTAL OF          5 INNER ITERATIONS.
    ------------------------------------------------

 NO OUTPUT CONTROL FOR STRESS PERIOD   41   TIME STEP    8
 
 SOLVING FOR HEAD 
                                                   Max.-Head-Change                         Max.-Flux-Residual
  Residual-Control   Outer-Iter.   Inner-Iter.     Column Row Layer    Maximum-Head-Change  Column Row Layer    Maximum-Flux-Residual          L2-NORM 
          0                 1           2             3    7     1       0.7747344788E-02       4    9    1         0.2423646952E+00      0.9638650950E+00
          0                 2           2             3    7     1      -0.7536056992E-03       4    9    1        -0.2423648023E-01      0.9638564305E-01
          0                 3           1             3    7     1       0.5131780220E-04       4    9    1         0.1696554249E-02      0.6746919072E-02

    ------------------------------------------------
       NWT REQUIRED            3 OUTER ITERATIONS 
       AND A TOTAL OF          5 INNER ITERATIONS.
    ------------------------------------------------

 NO OUTPUT CONTROL FOR STRESS PERIOD   41   TIME STEP    9
 
 SOLVING FOR HEAD 
                                                   Max.-Head-Change                         Max.-Flux-Residual
  Residual-Control   Outer-Iter.   Inner-Iter.     Column Row Layer    Maximum-Head-Change  Column Row Layer    Maximum-Flux-Residual          L2-NORM 
          0                 1           2             3    7     1       0.7615852369E-02       4    9    1         0.2358401880E+00      0.9457619045E+00
          0                 2           2             3    7     1      -0.7408150630E-03       4    9    1        -0.2358402924E-01      0.9457528836E-01
          0                 3           1             3    7     1       0.5044680586E-04       4    9    1         0.1650882667E-02      0.6620173815E-02

    ------------------------------------------------
       NWT REQUIRED            3 OUTER ITERATIONS 
       AND A TOTAL OF          5 INNER ITERATIONS.
    ------------------------------------------------

 NO OUTPUT CONTROL FOR STRESS PERIOD   41   TIME STEP   10
 
 SOLVING FOR HEAD 
                                                   Max.-Head-Change                         Max.-Flux-Residual
  Residual-Control   Outer-Iter.   Inner-Iter.     Column Row Layer    Maximum-Head-Change  Column Row Layer    Maximum-Flux-Residual          L2-NORM 
          0                 1           2             3    7     1       0.7487042407E-02       4    9    1         0.2295768384E+00      0.9285913432E+00
          0                 2           2             3    7     1      -0.7282853576E-03       4    9    1        -0.2295769402E-01      0.9285823692E-01
          0                 3           1             3    7     1       0.4959357765E-04       4    9    1         0.1607039174E-02      0.6500003570E-02

    ------------------------------------------------
       NWT REQUIRED            3 OUTER ITERATIONS 
       AND A TOTAL OF          5 INNER ITERATIONS.
    ------------------------------------------------

 NO OUTPUT CONTROL FOR STRESS PERIOD   41   TIME STEP   11
 
 SOLVING FOR HEAD 
                                                   Max.-Head-Change                         Max.-Flux-Residual
  Residual-Control   Outer-Iter.   Inner-Iter.     Column Row Layer    Maximum-Head-Change  Column Row Layer    Maximum-Flux-Residual          L2-NORM 
          0                 1           2             3    7     1       0.7360397811E-02       4    9    1         0.2235645571E+00      0.9122767172E+00
          0                 2           2             3    7     1      -0.7159662835E-03       4    9    1        -0.2235646566E-01      0.9122675631E-01
          0                 3           1             3    7     1       0.4875469279E-04       4    9    1         0.1564953191E-02      0.6385781425E-02

    ------------------------------------------------
       NWT REQUIRED            3 OUTER ITERATIONS 
       AND A TOTAL OF          5 INNER ITERATIONS.
    ------------------------------------------------

 NO OUTPUT CONTROL FOR STRESS PERIOD   41   TIME STEP   12
 
 SOLVING FOR HEAD 
                                                   Max.-Head-Change                         Max.-Flux-Residual
  Residual-Control   Outer-Iter.   Inner-Iter.     Column Row Layer    Maximum-Head-Change  Column Row Layer    Maximum-Flux-Residual          L2-NORM 
          0                 1           2             3    7     1       0.7236387230E-02       4    9    1         0.2177997679E+00      0.8967848783E+00
          0                 2           2             3    7     1      -0.7039034282E-03       4    9    1        -0.2177998649E-01      0.8967797628E-01
          0                 3           1             3    7     1       0.4793325548E-04       4    9    1         0.1524599626E-02      0.6277391315E-02

    ------------------------------------------------
       NWT REQUIRED            3 OUTER ITERATIONS 
       AND A TOTAL OF          5 INNER ITERATIONS.
    ------------------------------------------------

 NO OUTPUT CONTROL FOR STRESS PERIOD   41   TIME STEP   13
 
 SOLVING FOR HEAD 
                                                   Max.-Head-Change                         Max.-Flux-Residual
  Residual-Control   Outer-Iter.   Inner-Iter.     Column Row Layer    Maximum-Head-Change  Column Row Layer    Maximum-Flux-Residual          L2-NORM 
          0                 1           2             3    7     1       0.7114731559E-02       4    9    1         0.2122597872E+00      0.8820394842E+00
          0                 2           2             3    7     1      -0.6920696421E-03       4    9    1        -0.2122598820E-01      0.8820304316E-01
          0                 3           1             3    7     1       0.4712741719E-04       4    9    1         0.1485819738E-02      0.6174143403E-02

    ------------------------------------------------
       NWT REQUIRED            3 OUTER ITERATIONS 
       AND A TOTAL OF          5 INNER ITERATIONS.
    ------------------------------------------------

 NO OUTPUT CONTROL FOR STRESS PERIOD   41   TIME STEP   14
 
 SOLVING FOR HEAD 
                                                   Max.-Head-Change                         Max.-Flux-Residual
  Residual-Control   Outer-Iter.   Inner-Iter.     Column Row Layer    Maximum-Head-Change  Column Row Layer    Maximum-Flux-Residual          L2-NORM 
          0                 1           2             3    7     1       0.6995401516E-02       4    9    1         0.2069546012E+00      0.8680168772E+00
          0                 2           2             3    7     1      -0.6804620772E-03       4    9    1        -0.2069546939E-01      0.8680077705E-01
          0                 3           1             3    7     1       0.4633698408E-04       4    9    1         0.1448683400E-02      0.6075979014E-02

    ------------------------------------------------
       NWT REQUIRED            3 OUTER ITERATIONS 
       AND A TOTAL OF          5 INNER ITERATIONS.
    ------------------------------------------------

 NO OUTPUT CONTROL FOR STRESS PERIOD   41   TIME STEP   15
 
 SOLVING FOR HEAD 
                                                   Max.-Head-Change                         Max.-Flux-Residual
  Residual-Control   Outer-Iter.   Inner-Iter.     Column Row Layer    Maximum-Head-Change  Column Row Layer    Maximum-Flux-Residual          L2-NORM 
          0                 1           2             3    7     1       0.6878366350E-02       4    9    1         0.2018618171E+00      0.8546544107E+00
          0                 2           2             3    7     1      -0.6690777408E-03       4    9    1        -0.2018619075E-01      0.8546451603E-01
          0                 3           1             3    7     1       0.4556175179E-04       4    9    1         0.1413033873E-02      0.5982424827E-02

    ------------------------------------------------
       NWT REQUIRED            3 OUTER ITERATIONS 
       AND A TOTAL OF          5 INNER ITERATIONS.
    ------------------------------------------------

 NO OUTPUT CONTROL FOR STRESS PERIOD   41   TIME STEP   16
 
 SOLVING FOR HEAD 
                                                   Max.-Head-Change                         Max.-Flux-Residual
  Residual-Control   Outer-Iter.   Inner-Iter.     Column Row Layer    Maximum-Head-Change  Column Row Layer    Maximum-Flux-Residual          L2-NORM 
          0                 1           2             3    7     1       0.6763837081E-02       4    9    1         0.1969724293E+00      0.8419208814E+00
          0                 2           2             3    7     1      -0.6579371616E-03       4    9    1        -0.1969725177E-01      0.8419117936E-01
          0                 3           1             3    7     1       0.4480311917E-04       4    9    1         0.1378808129E-02      0.5893325411E-02

    ------------------------------------------------
       NWT REQUIRED            3 OUTER ITERATIONS 
       AND A TOTAL OF          5 INNER ITERATIONS.
    ------------------------------------------------

 NO OUTPUT CONTROL FOR STRESS PERIOD   41   TIME STEP   17
 
 SOLVING FOR HEAD 
                                                   Max.-Head-Change                         Max.-Flux-Residual
  Residual-Control   Outer-Iter.   Inner-Iter.     Column Row Layer    Maximum-Head-Change  Column Row Layer    Maximum-Flux-Residual          L2-NORM 
          0                 1           2             3    7     1       0.6651286794E-02       4    9    1         0.1922845214E+00      0.8297740077E+00
          0                 2           2             3    7     1      -0.6469890831E-03       4    9    1        -0.1922846078E-01      0.8297646764E-01
          0                 3           1             3    7     1       0.4405759469E-04       4    9    1         0.1345992736E-02      0.5808252419E-02

    ------------------------------------------------
       NWT REQUIRED            3 OUTER ITERATIONS 
       AND A TOTAL OF          5 INNER ITERATIONS.
    ------------------------------------------------

 NO OUTPUT CONTROL FOR STRESS PERIOD   41   TIME STEP   18
 
 SOLVING FOR HEAD 
                                                   Max.-Head-Change                         Max.-Flux-Residual
  Residual-Control   Outer-Iter.   Inner-Iter.     Column Row Layer    Maximum-Head-Change  Column Row Layer    Maximum-Flux-Residual          L2-NORM 
          0                 1           2             3    7     1       0.6541414796E-02       4    9    1         0.1877893832E+00      0.8181781739E+00
          0                 2           2             3    7     1      -0.6363015295E-03       4    9    1        -0.1877894678E-01      0.8181688410E-01
          0                 3           1             3    7     1       0.4332981065E-04       4    9    1         0.1314526769E-02      0.5727108115E-02

    ------------------------------------------------
       NWT REQUIRED            3 OUTER ITERATIONS 
       AND A TOTAL OF          5 INNER ITERATIONS.
    ------------------------------------------------

 NO OUTPUT CONTROL FOR STRESS PERIOD   41   TIME STEP   19
 
 SOLVING FOR HEAD 
                                                   Max.-Head-Change                         Max.-Flux-Residual
  Residual-Control   Outer-Iter.   Inner-Iter.     Column Row Layer    Maximum-Head-Change  Column Row Layer    Maximum-Flux-Residual          L2-NORM 
          0                 1           2             3    7     1       0.6433443464E-02       4    9    1         0.1834788616E+00      0.8071023497E+00
          0                 2           2             3    7     1      -0.6257988590E-03       4    9    1        -0.1834789445E-01      0.8070931805E-01
          0                 3           1             3    7     1       0.4261461692E-04       4    9    1         0.1284353077E-02      0.5649563492E-02

    ------------------------------------------------
       NWT REQUIRED            3 OUTER ITERATIONS 
       AND A TOTAL OF          5 INNER ITERATIONS.
    ------------------------------------------------

 NO OUTPUT CONTROL FOR STRESS PERIOD   41   TIME STEP   20
 
 SOLVING FOR HEAD 
                                                   Max.-Head-Change                         Max.-Flux-Residual
  Residual-Control   Outer-Iter.   Inner-Iter.     Column Row Layer    Maximum-Head-Change  Column Row Layer    Maximum-Flux-Residual          L2-NORM 
          0                 1           2             3    7     1       0.6327826446E-02       4    9    1         0.1793384709E+00      0.7965153975E+00
          0                 2           2             3    7     1      -0.6155251996E-03       4    9    1        -0.1793385520E-01      0.7965065899E-01
          0                 3           1             3    7     1       0.4191501831E-04       4    9    1         0.1255370347E-02      0.5575470645E-02

    ------------------------------------------------
       NWT REQUIRED            3 OUTER ITERATIONS 
       AND A TOTAL OF          5 INNER ITERATIONS.
    ------------------------------------------------

 NO OUTPUT CONTROL FOR STRESS PERIOD   41   TIME STEP   21
 
 SOLVING FOR HEAD 
                                                   Max.-Head-Change                         Max.-Flux-Residual
  Residual-Control   Outer-Iter.   Inner-Iter.     Column Row Layer    Maximum-Head-Change  Column Row Layer    Maximum-Flux-Residual          L2-NORM 
          0                 1           2             3    7     1       0.6224281019E-02       4    9    1         0.1753738102E+00      0.7863896446E+00
          0                 2           2             3    7     1      -0.6054530495E-03       4    9    1        -0.1753738897E-01      0.7863805807E-01
          0                 3           1             3    7     1       0.4122914153E-04       4    9    1         0.1227617687E-02      0.5504595669E-02

    ------------------------------------------------
       NWT REQUIRED            3 OUTER ITERATIONS 
       AND A TOTAL OF          5 INNER ITERATIONS.
    ------------------------------------------------

 NO OUTPUT CONTROL FOR STRESS PERIOD   41   TIME STEP   22
 
 SOLVING FOR HEAD 
                                                   Max.-Head-Change                         Max.-Flux-Residual
  Residual-Control   Outer-Iter.   Inner-Iter.     Column Row Layer    Maximum-Head-Change  Column Row Layer    Maximum-Flux-Residual          L2-NORM 
          0                 1           2             3    7     1       0.6123009286E-02       4    9    1         0.1715642801E+00      0.7766995827E+00
          0                 2           2             3    7     1      -0.5956020684E-03       4    9    1        -0.1715643578E-01      0.7766903984E-01
          0                 3           1             3    7     1       0.4055832570E-04       4    9    1         0.1200950939E-02      0.5436761551E-02

    ------------------------------------------------
       NWT REQUIRED            3 OUTER ITERATIONS 
       AND A TOTAL OF          5 INNER ITERATIONS.
    ------------------------------------------------

 NO OUTPUT CONTROL FOR STRESS PERIOD   41   TIME STEP   23
 
 SOLVING FOR HEAD 
                                                   Max.-Head-Change                         Max.-Flux-Residual
  Residual-Control   Outer-Iter.   Inner-Iter.     Column Row Layer    Maximum-Head-Change  Column Row Layer    Maximum-Flux-Residual          L2-NORM 
          0                 1           2             3    7     1       0.6023724773E-02       4    9    1         0.1679095107E+00      0.7674141979E+00
          0                 2           2             3    7     1      -0.5859443894E-03       4    9    1        -0.1679095870E-01      0.7674048824E-01
          0                 3           1             3    7     1       0.3990067257E-04       4    9    1         0.1175367550E-02      0.5371735443E-02

    ------------------------------------------------
       NWT REQUIRED            3 OUTER ITERATIONS 
       AND A TOTAL OF          5 INNER ITERATIONS.
    ------------------------------------------------

 NO OUTPUT CONTROL FOR STRESS PERIOD   41   TIME STEP   24
 
 SOLVING FOR HEAD 
                                                   Max.-Head-Change                         Max.-Flux-Residual
  Residual-Control   Outer-Iter.   Inner-Iter.     Column Row Layer    Maximum-Head-Change  Column Row Layer    Maximum-Flux-Residual          L2-NORM 
          0                 1           2             3    7     1       0.5926631755E-02       4    9    1         0.1644025899E+00      0.7585149880E+00
          0                 2           2             3    7     1      -0.5764998833E-03       4    9    1        -0.1644026646E-01      0.7585059187E-01
          0                 3           1             3    7     1       0.3925753626E-04       4    9    1         0.1150819085E-02      0.5309481537E-02

    ------------------------------------------------
       NWT REQUIRED            3 OUTER ITERATIONS 
       AND A TOTAL OF          5 INNER ITERATIONS.
    ------------------------------------------------

 NO OUTPUT CONTROL FOR STRESS PERIOD   41   TIME STEP   25
 
 SOLVING FOR HEAD 
                                                   Max.-Head-Change                         Max.-Flux-Residual
  Residual-Control   Outer-Iter.   Inner-Iter.     Column Row Layer    Maximum-Head-Change  Column Row Layer    Maximum-Flux-Residual          L2-NORM 
          0                 1           2             3    7     1       0.5831441029E-02       4    9    1         0.1610369926E+00      0.7499821594E+00
          0                 2           2             3    7     1      -0.5672404187E-03       4    9    1        -0.1610370657E-01      0.7499733331E-01
          0                 3           1             3    7     1       0.3862700056E-04       4    9    1         0.1127259870E-02      0.5249755556E-02

    ------------------------------------------------
       NWT REQUIRED            3 OUTER ITERATIONS 
       AND A TOTAL OF          5 INNER ITERATIONS.
    ------------------------------------------------

 NO OUTPUT CONTROL FOR STRESS PERIOD   41   TIME STEP   26
 
 SOLVING FOR HEAD 
                                                   Max.-Head-Change                         Max.-Flux-Residual
  Residual-Control   Outer-Iter.   Inner-Iter.     Column Row Layer    Maximum-Head-Change  Column Row Layer    Maximum-Flux-Residual          L2-NORM 
          0                 1           2             3    7     1       0.5738357286E-02       9    5    1        -0.1597528297E+00      0.7417970706E+00
          0                 2           2             3    7     1      -0.5581859061E-03       9    5    1         0.1597526934E-01      0.7417879872E-01
          0                 3           1             3    7     1       0.3801042077E-04       9    5    1        -0.1118269461E-02      0.5192443450E-02

    ------------------------------------------------
       NWT REQUIRED            3 OUTER ITERATIONS 
       AND A TOTAL OF          5 INNER ITERATIONS.
    ------------------------------------------------

 NO OUTPUT CONTROL FOR STRESS PERIOD   41   TIME STEP   27
 
 SOLVING FOR HEAD 
                                                   Max.-Head-Change                         Max.-Flux-Residual
  Residual-Control   Outer-Iter.   Inner-Iter.     Column Row Layer    Maximum-Head-Change  Column Row Layer    Maximum-Flux-Residual          L2-NORM 
          0                 1           2             3    7     1       0.5647336069E-02       9    5    1        -0.1592191343E+00      0.7339321096E+00
          0                 2           2             3    7     1      -0.5438149735E-03       9    5    1         0.1592189988E-01      0.7334542717E-01
          0                 3           1             3    7     1       0.3703180449E-04       9    5    1        -0.1114533598E-02      0.5134124939E-02

    ------------------------------------------------
       NWT REQUIRED            3 OUTER ITERATIONS 
       AND A TOTAL OF          5 INNER ITERATIONS.
    ------------------------------------------------

 NO OUTPUT CONTROL FOR STRESS PERIOD   41   TIME STEP   28
 
 SOLVING FOR HEAD 
                                                   Max.-Head-Change                         Max.-Flux-Residual
  Residual-Control   Outer-Iter.   Inner-Iter.     Column Row Layer    Maximum-Head-Change  Column Row Layer    Maximum-Flux-Residual          L2-NORM 
          0                 1           2             3    7     1       0.5570946314E-02       9    5    1        -0.1586860325E+00      0.7264206134E+00
          0                 2           2             3    7     1      -0.5419022188E-03       9    5    1         0.1586858978E-01      0.7264119051E-01
          0                 3           1             3    7     1       0.3690155253E-04       9    5    1        -0.1110801882E-02      0.5084798798E-02

    ------------------------------------------------
       NWT REQUIRED            3 OUTER ITERATIONS 
       AND A TOTAL OF          5 INNER ITERATIONS.
    ------------------------------------------------

 NO OUTPUT CONTROL FOR STRESS PERIOD   41   TIME STEP   29
 
 SOLVING FOR HEAD 
                                                   Max.-Head-Change                         Max.-Flux-Residual
  Residual-Control   Outer-Iter.   Inner-Iter.     Column Row Layer    Maximum-Head-Change  Column Row Layer    Maximum-Flux-Residual          L2-NORM 
          0                 1           2             3    7     1       0.5490495531E-02       9    5    1        -0.1581474944E+00      0.7192054997E+00
          0                 2           2             3    7     1      -0.5340765170E-03       9    5    1         0.1581473609E-01      0.7191967014E-01
          0                 3           1             3    7     1       0.3636865095E-04       9    5    1        -0.1107032132E-02      0.5034298512E-02

    ------------------------------------------------
       NWT REQUIRED            3 OUTER ITERATIONS 
       AND A TOTAL OF          5 INNER ITERATIONS.
    ------------------------------------------------

 NO OUTPUT CONTROL FOR STRESS PERIOD   41   TIME STEP   30



 STREAM LISTING     PERIOD     41   STEP       30

 LAYER ROW COL. STREAM  RCH.  FLOW INTO     FLOW TO   FLOW OUT OF   OVRLND.     DIRECT     STREAM       STREAM     STREAM     STREAM   STREAMBED  STREAMBED
                SEG.NO.  NO.  STRM. RCH.    AQUIFER    STRM. RCH.    RUNOFF     PRECIP       ET          HEAD       DEPTH      WIDTH   CONDCTNC.   GRADIENT

   1    1    1     1     1    1.9000E+01  2.1427E-01   1.8786E+01  0.000E+00  0.000E+00  0.000E+00  1.09413E+03  1.082E+00  1.166E+01  5.249E-02  1.361E+00
   1    2    2     1     2    1.8786E+01  3.3054E-01   1.8455E+01  0.000E+00  0.000E+00  0.000E+00  1.08914E+03  1.077E+00  1.158E+01  8.107E-02  1.359E+00
   1    3    3     1     3    1.8455E+01  2.8064E-01   1.8175E+01  0.000E+00  0.000E+00  0.000E+00  1.08349E+03  1.072E+00  1.149E+01  6.892E-02  1.357E+00
   1    3    4     1     4    1.8175E+01  2.5740E-01   1.7917E+01  0.000E+00  0.000E+00  0.000E+00  1.07848E+03  1.068E+00  1.140E+01  6.328E-02  1.356E+00
   1    4    5     2     1    1.5917E+01  3.0542E-01   1.5612E+01  0.000E+00  0.000E+00  0.000E+00  1.07285E+03  9.157E-01  1.200E+01  7.800E-02  1.305E+00
   1    5    6     2     2    1.5612E+01  2.3438E-01   1.5377E+01  0.000E+00  0.000E+00  0.000E+00  1.06742E+03  9.063E-01  1.200E+01  6.000E-02  1.302E+00
   1    6    6     2     3    1.5377E+01  2.3388E-01   1.5143E+01  0.000E+00  0.000E+00  0.000E+00  1.06269E+03  8.980E-01  1.200E+01  6.000E-02  1.299E+00
   1    7    6     2     4    1.5143E+01  2.3338E-01   1.4910E+01  0.000E+00  0.000E+00  0.000E+00  1.05797E+03  8.897E-01  1.200E+01  6.000E-02  1.297E+00
   1    8    6     2     5    1.4910E+01  2.3289E-01   1.4677E+01  0.000E+00  0.000E+00  0.000E+00  1.05324E+03  8.814E-01  1.200E+01  6.000E-02  1.294E+00
   1    3    5     3     1    2.0000E+00  2.8252E-01   1.7175E+00  0.000E+00  0.000E+00  0.000E+00  1.07555E+03  1.909E+00  9.636E+00  7.227E-02  1.955E+00
   1    3    6     3     2    1.7175E+00  2.4905E-01   1.4684E+00  0.000E+00  0.000E+00  0.000E+00  1.07264E+03  1.727E+00  8.909E+00  6.682E-02  1.864E+00
   1    3    7     3     3    1.4684E+00  1.9718E-01   1.2712E+00  0.000E+00  0.000E+00  0.000E+00  1.06987E+03  1.555E+00  8.218E+00  5.547E-02  1.777E+00
   1    4    8     3     4    1.2712E+00  2.2567E-01   1.0456E+00  0.000E+00  0.000E+00  0.000E+00  1.06682E+03  1.364E+00  7.455E+00  6.709E-02  1.682E+00
   1    5    8     3     5    1.0456E+00  1.5790E-01   8.8768E-01  0.000E+00  0.000E+00  0.000E+00  1.06362E+03  1.164E+00  6.655E+00  4.991E-02  1.582E+00
   1    6    8     3     6    8.8768E-01  5.5980E-02   8.3170E-01  0.000E+00  0.000E+00  0.000E+00  1.06158E+03  1.036E+00  6.145E+00  1.844E-02  1.518E+00
   1    5   10     4     1    1.0000E+01  9.0919E-02   9.9091E+00  0.000E+00  0.000E+00  0.000E+00  1.07836E+03  6.368E-01  1.000E+01  2.500E-02  1.212E+00
   1    5    9     4     2    9.9091E+00  1.8158E-01   9.7275E+00  0.000E+00  0.000E+00  0.000E+00  1.07154E+03  6.315E-01  1.000E+01  5.000E-02  1.211E+00
   1    6    8     4     3    9.7275E+00  1.2689E-01   9.6006E+00  0.000E+00  0.000E+00  0.000E+00  1.06381E+03  6.256E-01  1.000E+01  3.500E-02  1.209E+00
   1    6    8     5     1    1.0432E+01  2.2686E-01   1.0205E+01  0.000E+00  0.000E+00  0.000E+00  1.05868E+03  6.790E-01  1.542E+01  6.166E-02  1.226E+00
   1    7    7     5     2    1.0205E+01  2.7894E-01   9.9265E+00  0.000E+00  0.000E+00  0.000E+00  1.05417E+03  6.732E-01  1.519E+01  7.594E-02  1.224E+00
   1    8    7     5     3    9.9265E+00  1.9221E-01   9.7343E+00  0.000E+00  0.000E+00  0.000E+00  1.04992E+03  6.676E-01  1.497E+01  5.241E-02  1.223E+00
   1    8    6     5     4    9.7343E+00  1.3577E-01   9.5985E+00  0.000E+00  0.000E+00  0.000E+00  1.04691E+03  6.637E-01  1.482E+01  3.706E-02  1.221E+00
   1    9    6     6     1    2.4276E+01  2.5176E-01   2.4024E+01  0.000E+00  0.000E+00  0.000E+00  1.04392E+03  1.196E+00  1.200E+01  6.000E-02  1.399E+00
   1   10    7     6     2    2.4024E+01  2.5131E-01   2.3773E+01  0.000E+00  0.000E+00  0.000E+00  1.03937E+03  1.188E+00  1.200E+01  6.000E-02  1.396E+00
   1   11    7     6     3    2.3773E+01  2.5086E-01   2.3522E+01  0.000E+00  0.000E+00  0.000E+00  1.03482E+03  1.181E+00  1.200E+01  6.000E-02  1.394E+00
   1   12    7     6     4    2.3522E+01  2.5041E-01   2.3271E+01  0.000E+00  0.000E+00  0.000E+00  1.03026E+03  1.173E+00  1.200E+01  6.000E-02  1.391E+00
   1   13    7     6     5    2.3271E+01  1.0761E-02   2.3261E+01  0.000E+00  0.000E+00  0.000E+00  1.02708E+03  1.170E+00  1.200E+01  2.400E-02  1.495E-01
   1   14    9     7     1    1.5000E+02  1.3682E+00   1.4863E+02  0.000E+00  0.000E+00  0.000E+00  1.03987E+03  2.288E+00  5.529E+01  5.593E-01  8.155E-01
   1   13    8     7     2    1.4863E+02  1.9648E+00   1.4667E+02  0.000E+00  0.000E+00  0.000E+00  1.03478E+03  2.279E+00  5.525E+01  6.147E-01  1.065E+00
   1   13    7     7     3    1.4667E+02  1.7076E+00   1.4496E+02  0.000E+00  0.000E+00  0.000E+00  1.02969E+03  2.269E+00  5.521E+01  5.584E-01  1.019E+00
   1   13    6     8     1    1.6822E+02  1.1441E+00   1.6708E+02  0.000E+00  0.000E+00  0.000E+00  1.02481E+03  2.937E+00  4.258E+01  4.339E-01  8.788E-01
   1   13    5     8     2    1.6708E+02  3.8203E-01   1.6669E+02  0.000E+00  0.000E+00  0.000E+00  1.01856E+03  2.932E+00  4.251E+01  4.332E-01  2.940E-01
   1   13    4     8     3    1.6669E+02 -1.7444E+00   1.6844E+02  0.000E+00  0.000E+00  0.000E+00  1.01231E+03  2.936E+00  4.258E+01  4.339E+00 -1.340E-01
   1   13    3     8     4    1.6844E+02 -3.3100E+00   1.7175E+02  0.000E+00  0.000E+00  0.000E+00  1.00608E+03  2.953E+00  4.282E+01  4.363E+00 -2.529E-01
   1   13    2     8     5    1.7175E+02 -2.4944E+00   1.7424E+02  0.000E+00  0.000E+00  0.000E+00  9.99847E+02  2.972E+00  4.309E+01  4.391E+00 -1.894E-01
   1   13    1     8     6    1.7424E+02 -1.9614E+00   1.7620E+02  0.000E+00  0.000E+00  0.000E+00  9.94861E+02  2.986E+00  4.330E+01  2.647E+00 -2.470E-01





UNSATURATED ZONE PACKAGE VOLUMETRIC BUDGET FOR  TIME STEP    30 STRESS PERIOD   41
  ------------------------------------------------------------------------------



     CUMULATIVE VOLUMES      L**3       RATES FOR THIS TIME STEP      L**3/T
     ------------------                 ------------------------

           IN:                                      IN:
           ---                                      ---
        INFILTRATION =  1526535070.7996          INFILTRATION =           4.5675

          OUT:                                     OUT:
          ----                                     ----
              UZF ET =  1310406920.7085                UZF ET =           4.5675
        UZF RECHARGE =   216053968.0352          UZF RECHARGE =       0.0000E+00

            IN - OUT =       74182.0558              IN - OUT =       0.0000E+00

          STORAGE:                                 STORAGE:
          --------                                 --------
      STORAGE CHANGE =       74160.8959        STORAGE CHANGE =       8.4001E-15

 PERCENT DISCREPANCY IS DIFFERENCE BETWEEN IN-OUT MINUS CHANGE IN STORAGE
 DIVIDED BY THE AVERAGE OF IN AND OUT TIMES 100

 PERCENT DISCREPANCY =           0.00     PERCENT DISCREPANCY =           0.00






1
  VOLUMETRIC BUDGET FOR AGRICULTURAL FIELDS AT  END OF TIME STEP   30, STRESS PERIOD  41
  ------------------------------------------------------------------------------

     CUMULATIVE VOLUMES      L**3       RATES FOR THIS TIME STEP      L**3/T
     ------------------                 ------------------------

           IN:                                      IN:
           ---                                      ---
               AG WELLS  =  1437303424.0000                 AG WELLS  =           3.7200
      DIVERSION SEGMENTS =           0.0000        DIVERSION SEGMENTS =           0.0000
           GW IRRIGATION =           0.0000             GW IRRIGATION =           0.0000
           SW IRRIGATION =           0.0000             SW IRRIGATION =           0.0000
        SYSTEM LOSSES GW =           0.0000          SYSTEM LOSSES GW =           0.0000
        SYSTEM LOSSES SW =           0.0000          SYSTEM LOSSES SW =           0.0000

                TOTAL IN =  1437303424.0000                  TOTAL IN =           3.7200

          OUT:                                     OUT:
          ----                                     ----
               AG WELLS  =           0.0000                 AG WELLS  =           0.0000
      DIVERSION SEGMENTS =           0.0000        DIVERSION SEGMENTS =           0.0000
           GW IRRIGATION =  1437303424.0000             GW IRRIGATION =           3.7200
           SW IRRIGATION =           0.0000             SW IRRIGATION =           0.0000
        SYSTEM LOSSES GW =           0.0000          SYSTEM LOSSES GW =           0.0000
        SYSTEM LOSSES SW =           0.0000          SYSTEM LOSSES SW =           0.0000

               TOTAL OUT =  1437303424.0000                 TOTAL OUT =           3.7200

                IN - OUT =           0.0000                  IN - OUT =           0.0000

     PERCENT DISCREPANCY =           0.00         PERCENT DISCREPANCY =           0.00



1
  VOLUMETRIC BUDGET FOR ENTIRE MODEL AT END OF TIME STEP   30, STRESS PERIOD  41
  ------------------------------------------------------------------------------

     CUMULATIVE VOLUMES      L**3       RATES FOR THIS TIME STEP      L**3/T
     ------------------                 ------------------------

           IN:                                      IN:
           ---                                      ---
             STORAGE     =  1891111040.0000               STORAGE     =           3.4942
       CONSTANT HEAD     =           0.0000         CONSTANT HEAD     =           0.0000
     HEAD DEP BOUNDS     =    30116942.0000       HEAD DEP BOUNDS     =           0.2880
      STREAM LEAKAGE     =  1290502272.0000        STREAM LEAKAGE     =          12.3061
        UZF RECHARGE     =   216053968.0000          UZF RECHARGE     =           0.0000
               GW ET     =           0.0000                 GW ET     =           0.0000
     SURFACE LEAKAGE     =           0.0000       SURFACE LEAKAGE     =           0.0000
           AG WELLS      =           0.0000             AG WELLS      =           0.0000

                TOTAL IN =  3427784448.0000                  TOTAL IN =          16.0883

          OUT:                                     OUT:
          ----                                     ----
             STORAGE     =   871406336.0000               STORAGE     =           2.5689
       CONSTANT HEAD     =           0.0000         CONSTANT HEAD     =           0.0000
     HEAD DEP BOUNDS     =    30752034.0000       HEAD DEP BOUNDS     =           0.2889
      STREAM LEAKAGE     =  1070781568.0000        STREAM LEAKAGE     =           9.5102
        UZF RECHARGE     =           0.0000          UZF RECHARGE     =           0.0000
               GW ET     =    17516984.0000                 GW ET     =           0.0000
     SURFACE LEAKAGE     =           0.0000       SURFACE LEAKAGE     =           0.0000
           AG WELLS      =  1437303424.0000             AG WELLS      =           3.7200

               TOTAL OUT =  3427760384.0000                 TOTAL OUT =          16.0880

                IN - OUT =       24064.0000                  IN - OUT =       2.6894E-04

     PERCENT DISCREPANCY =           0.00         PERCENT DISCREPANCY =           0.00






         TIME SUMMARY AT END OF TIME STEP   30 IN STRESS PERIOD   41
                    SECONDS     MINUTES      HOURS       DAYS        YEARS
                    -----------------------------------------------------------
   TIME STEP LENGTH  87667.      1461.1      24.352      1.0147     2.77799E-03
 STRESS PERIOD TIME 2.63000E+06  43833.      730.56      30.440     8.33397E-02
         TOTAL TIME 1.05286E+08 1.75476E+06  29246.      1218.6      3.3363    
1
1
                            STRESS PERIOD NO.   42, LENGTH =   2630000.    
                            -----------------------------------------------

                              NUMBER OF TIME STEPS =    30

                               MULTIPLIER FOR DELT =     1.000

                            INITIAL TIME STEP SIZE =   87666.66    

 REUSING NON-PARAMETER GHB CELLS FROM LAST STRESS PERIOD

      2 GHB CELLS

 REUSING STREAM SEGMENT DATA FROM LAST STRESS PERIOD



            AREAL INFILTRATION RATE
 READING ON UNIT   19 WITH FORMAT: (FREE)              

            1           2           3           4           5           6           7           8           9          10
 ........................................................................................................................
   1   1.0000E-10  2.0000E-10   0.000       0.000       0.000       0.000       0.000       0.000       0.000       0.000    
   2   2.0000E-10  1.0000E-10  2.0000E-10   0.000       0.000      8.0000E-10  8.0000E-10  5.0000E-10   0.000       0.000    
   3    0.000      5.0000E-10  1.0000E-10  1.0000E-10  8.0000E-10  8.0000E-10  5.0000E-10  5.0000E-10   0.000       0.000    
   4   8.0000E-10  5.0000E-10  1.0000E-10  1.0000E-10  1.0000E-10  1.0000E-10  1.0000E-10  1.0000E-10  2.0000E-10   0.000    
   5   8.0000E-10  5.0000E-10  1.0000E-10  1.0000E-10  1.0000E-10  1.0000E-10  1.0000E-10  1.0000E-10  1.0000E-10  1.0000E-10
   6   8.0000E-10  5.0000E-10  5.0000E-10  2.0000E-10  2.0000E-10  1.0000E-10  1.0000E-10  1.0000E-10  1.0000E-10  5.0000E-10
   7   8.0000E-10  5.0000E-10  5.0000E-10  2.0000E-10  2.0000E-10  1.0000E-10  1.0000E-10  2.0000E-10  2.0000E-10   0.000    
   8    0.000      5.0000E-10  5.0000E-10  2.0000E-10  2.0000E-10  1.0000E-10  1.0000E-10  2.0000E-10  5.0000E-10   0.000    
   9    0.000      5.0000E-10  5.0000E-10  2.0000E-10  2.0000E-10  1.0000E-10  1.0000E-10  2.0000E-10  5.0000E-10   0.000    
  10    0.000      5.0000E-10  5.0000E-10  2.0000E-10  2.0000E-10  1.0000E-10  1.0000E-10  2.0000E-10  5.0000E-10  8.0000E-10
  11    0.000      1.0000E-10  1.0000E-10  1.0000E-10  1.0000E-10  1.0000E-10  1.0000E-10  2.0000E-10  5.0000E-10   0.000    
  12   1.0000E-10  1.0000E-10  1.0000E-10  1.0000E-10  1.0000E-10  1.0000E-10  1.0000E-10  1.0000E-10  2.0000E-10   0.000    
  13   1.0000E-10  1.0000E-10  2.0000E-10  2.0000E-10  2.0000E-10  2.0000E-10  2.0000E-10  1.0000E-10  1.0000E-10   0.000    
  14    0.000      2.0000E-10  5.0000E-10  5.0000E-10  5.0000E-10  5.0000E-10  5.0000E-10  2.0000E-10  1.0000E-10   0.000    
  15    0.000       0.000      8.0000E-10  8.0000E-10  8.0000E-10  8.0000E-10   0.000       0.000       0.000       0.000    

                  ET RATE =  5.000000E-08

 USING ET EXTINCTION DEPTH FROM PREVIOUS STRESS PERIOD. CURRENT PERIOD IS:      42

 USING EXTINCTION WATER CONTENT FROM PREVIOUS STRESS PERIOD. CURRENT PERIOD IS:      42

 USING AIR ENTRY PRESSURE FROM PREVIOUS STRESS PERIOD. CURRENT PERIOD IS:      42

 USING ROOT PRESSURE HEAD FROM PREVIOUS STRESS PERIOD. CURRENT PERIOD IS:      42

 USING ROOT ACTIVITY FROM PREVIOUS STRESS PERIOD. CURRENT PERIOD IS:      42

 PROCESSING AG STRESS PERIOD DATA

 READING AG STRESS PERIOD DATA

 READING IRRIGATION WELL

 END PROCESSING AG STRESS PERIOD DATA OPTIONS
 
 SOLVING FOR HEAD 
                                                   Max.-Head-Change                         Max.-Flux-Residual
  Residual-Control   Outer-Iter.   Inner-Iter.     Column Row Layer    Maximum-Head-Change  Column Row Layer    Maximum-Flux-Residual          L2-NORM 
          0                 1           2             4    7     1      -0.1280022223E-01       4    7    1        -0.6705461286E+00      0.1734005566E+01
          0                 2           2             4    7     1       0.1245112070E-02       4    7    1         0.6705458607E-01      0.1733999164E+00
          0                 3           1             4    7     1      -0.8478752023E-04       4    7    1        -0.4693823313E-02      0.1213797616E-01

    ------------------------------------------------
       NWT REQUIRED            3 OUTER ITERATIONS 
       AND A TOTAL OF          5 INNER ITERATIONS.
    ------------------------------------------------

 NO OUTPUT CONTROL FOR STRESS PERIOD   42   TIME STEP    1
 
 SOLVING FOR HEAD 
                                                   Max.-Head-Change                         Max.-Flux-Residual
  Residual-Control   Outer-Iter.   Inner-Iter.     Column Row Layer    Maximum-Head-Change  Column Row Layer    Maximum-Flux-Residual          L2-NORM 
          0                 1           2             4    7     1      -0.1268981405E-01       4    7    1        -0.6650723962E+00      0.1694834498E+01
          0                 2           2             4    7     1       0.1234372195E-02       4    7    1         0.6650720102E-01      0.1694828151E+00
          0                 3           1             4    7     1      -0.8405617615E-04       4    7    1        -0.4655506450E-02      0.1186378133E-01

    ------------------------------------------------
       NWT REQUIRED            3 OUTER ITERATIONS 
       AND A TOTAL OF          5 INNER ITERATIONS.
    ------------------------------------------------

 NO OUTPUT CONTROL FOR STRESS PERIOD   42   TIME STEP    2
 
 SOLVING FOR HEAD 
                                                   Max.-Head-Change                         Max.-Flux-Residual
  Residual-Control   Outer-Iter.   Inner-Iter.     Column Row Layer    Maximum-Head-Change  Column Row Layer    Maximum-Flux-Residual          L2-NORM 
          0                 1           2             4    7     1      -0.1257495072E-01       4    7    1        -0.6593403840E+00      0.1657436667E+01
          0                 2           2             4    7     1       0.1223198973E-02       4    7    1         0.6593398926E-01      0.1657430501E+00
          0                 3           1             4    7     1      -0.8329532247E-04       4    7    1        -0.4615381692E-02      0.1160200033E-01

    ------------------------------------------------
       NWT REQUIRED            3 OUTER ITERATIONS 
       AND A TOTAL OF          5 INNER ITERATIONS.
    ------------------------------------------------

 NO OUTPUT CONTROL FOR STRESS PERIOD   42   TIME STEP    3
 
 SOLVING FOR HEAD 
                                                   Max.-Head-Change                         Max.-Flux-Residual
  Residual-Control   Outer-Iter.   Inner-Iter.     Column Row Layer    Maximum-Head-Change  Column Row Layer    Maximum-Flux-Residual          L2-NORM 
          0                 1           2             4    7     1      -0.1245612292E-01       4    7    1        -0.6533773824E+00      0.1621697750E+01
          0                 2           2             4    7     1       0.1211640134E-02       4    7    1         0.6533767971E-01      0.1621691566E+00
          0                 3           1             4    7     1      -0.8250821012E-04       4    7    1        -0.4573640115E-02      0.1135182232E-01

    ------------------------------------------------
       NWT REQUIRED            3 OUTER ITERATIONS 
       AND A TOTAL OF          5 INNER ITERATIONS.
    ------------------------------------------------

 NO OUTPUT CONTROL FOR STRESS PERIOD   42   TIME STEP    4
 
 SOLVING FOR HEAD 
                                                   Max.-Head-Change                         Max.-Flux-Residual
  Residual-Control   Outer-Iter.   Inner-Iter.     Column Row Layer    Maximum-Head-Change  Column Row Layer    Maximum-Flux-Residual          L2-NORM 
          0                 1           2             4    7     1      -0.1233352462E-01       4    7    1        -0.6471941839E+00      0.1587501255E+01
          0                 2           2             4    7     1       0.1199714544E-02       4    7    1         0.6471935155E-01      0.1587495188E+00
          0                 3           1             4    7     1      -0.8169612282E-04       4    7    1        -0.4530357206E-02      0.1111244891E-01

    ------------------------------------------------
       NWT REQUIRED            3 OUTER ITERATIONS 
       AND A TOTAL OF          5 INNER ITERATIONS.
    ------------------------------------------------

 NO OUTPUT CONTROL FOR STRESS PERIOD   42   TIME STEP    5
 
 SOLVING FOR HEAD 
                                                   Max.-Head-Change                         Max.-Flux-Residual
  Residual-Control   Outer-Iter.   Inner-Iter.     Column Row Layer    Maximum-Head-Change  Column Row Layer    Maximum-Flux-Residual          L2-NORM 
          0                 1           2             4    7     1      -0.1220787577E-01       4    7    1        -0.6408301442E+00      0.1554760561E+01
          0                 2           2             4    7     1       0.1187492234E-02       4    7    1         0.6408294031E-01      0.1554754470E+00
          0                 3           1             4    7     1      -0.8086382979E-04       4    7    1        -0.4485808460E-02      0.1088325185E-01

    ------------------------------------------------
       NWT REQUIRED            3 OUTER ITERATIONS 
       AND A TOTAL OF          5 INNER ITERATIONS.
    ------------------------------------------------

 NO OUTPUT CONTROL FOR STRESS PERIOD   42   TIME STEP    6
 
 SOLVING FOR HEAD 
                                                   Max.-Head-Change                         Max.-Flux-Residual
  Residual-Control   Outer-Iter.   Inner-Iter.     Column Row Layer    Maximum-Head-Change  Column Row Layer    Maximum-Flux-Residual          L2-NORM 
          0                 1           2             4    7     1      -0.1207944331E-01       4    7    1        -0.6343006180E+00      0.1523376730E+01
          0                 2           2             4    7     1       0.1174999168E-02       4    7    1         0.6342998130E-01      0.1523370677E+00
          0                 3           1             4    7     1      -0.8001309931E-04       4    7    1        -0.4440101382E-02      0.1066357522E-01

    ------------------------------------------------
       NWT REQUIRED            3 OUTER ITERATIONS 
       AND A TOTAL OF          5 INNER ITERATIONS.
    ------------------------------------------------

 NO OUTPUT CONTROL FOR STRESS PERIOD   42   TIME STEP    7
 
 SOLVING FOR HEAD 
                                                   Max.-Head-Change                         Max.-Flux-Residual
  Residual-Control   Outer-Iter.   Inner-Iter.     Column Row Layer    Maximum-Head-Change  Column Row Layer    Maximum-Flux-Residual          L2-NORM 
          0                 1           2             4    7     1      -0.1194861470E-01       4    7    1        -0.6276267702E+00      0.1493272698E+01
          0                 2           2             4    7     1       0.1162273034E-02       4    7    1         0.6276259099E-01      0.1493266683E+00
          0                 3           1             4    7     1      -0.7914649705E-04       4    7    1        -0.4393384073E-02      0.1045283606E-01

    ------------------------------------------------
       NWT REQUIRED            3 OUTER ITERATIONS 
       AND A TOTAL OF          5 INNER ITERATIONS.
    ------------------------------------------------

 NO OUTPUT CONTROL FOR STRESS PERIOD   42   TIME STEP    8
 
 SOLVING FOR HEAD 
                                                   Max.-Head-Change                         Max.-Flux-Residual
  Residual-Control   Outer-Iter.   Inner-Iter.     Column Row Layer    Maximum-Head-Change  Column Row Layer    Maximum-Flux-Residual          L2-NORM 
          0                 1           2             4    7     1      -0.1181574745E-01       4    7    1        -0.6208286897E+00      0.1464370585E+01
          0                 2           2             4    7     1       0.1149348607E-02       4    7    1         0.6208277818E-01      0.1464364584E+00
          0                 3           1             4    7     1      -0.7826639258E-04       4    7    1        -0.4345797210E-02      0.1025053014E-01

    ------------------------------------------------
       NWT REQUIRED            3 OUTER ITERATIONS 
       AND A TOTAL OF          5 INNER ITERATIONS.
    ------------------------------------------------

 NO OUTPUT CONTROL FOR STRESS PERIOD   42   TIME STEP    9
 
 SOLVING FOR HEAD 
                                                   Max.-Head-Change                         Max.-Flux-Residual
  Residual-Control   Outer-Iter.   Inner-Iter.     Column Row Layer    Maximum-Head-Change  Column Row Layer    Maximum-Flux-Residual          L2-NORM 
          0                 1           2             4    7     1      -0.1168117477E-01       4    7    1        -0.6139249129E+00      0.1436600126E+01
          0                 2           2             4    7     1       0.1136258298E-02       4    7    1         0.6139239642E-01      0.1436594445E+00
          0                 3           1             4    7     1      -0.7737499158E-04       4    7    1        -0.4297470503E-02      0.1005614944E-01

    ------------------------------------------------
       NWT REQUIRED            3 OUTER ITERATIONS 
       AND A TOTAL OF          5 INNER ITERATIONS.
    ------------------------------------------------

 NO OUTPUT CONTROL FOR STRESS PERIOD   42   TIME STEP   10
 
 SOLVING FOR HEAD 
                                                   Max.-Head-Change                         Max.-Flux-Residual
  Residual-Control   Outer-Iter.   Inner-Iter.     Column Row Layer    Maximum-Head-Change  Column Row Layer    Maximum-Flux-Residual          L2-NORM 
          0                 1           2             4    7     1      -0.1154520702E-01       4    7    1        -0.6069327163E+00      0.1409895957E+01
          0                 2           2             4    7     1       0.1123032296E-02       4    7    1         0.6069317334E-01      0.1409890127E+00
          0                 3           1             4    7     1      -0.7647435061E-04       4    7    1        -0.4248524907E-02      0.9869211979E-02

    ------------------------------------------------
       NWT REQUIRED            3 OUTER ITERATIONS 
       AND A TOTAL OF          5 INNER ITERATIONS.
    ------------------------------------------------

 NO OUTPUT CONTROL FOR STRESS PERIOD   42   TIME STEP   11
 
 SOLVING FOR HEAD 
                                                   Max.-Head-Change                         Max.-Flux-Residual
  Residual-Control   Outer-Iter.   Inner-Iter.     Column Row Layer    Maximum-Head-Change  Column Row Layer    Maximum-Flux-Residual          L2-NORM 
          0                 1           2             4    7     1      -0.1140813544E-01       4    7    1        -0.5998681913E+00      0.1384203435E+01
          0                 2           2             4    7     1       0.1109698930E-02       4    7    1         0.5998671798E-01      0.1384197741E+00
          0                 3           1             4    7     1      -0.7556639786E-04       4    7    1        -0.4199073025E-02      0.9689359374E-02

    ------------------------------------------------
       NWT REQUIRED            3 OUTER ITERATIONS 
       AND A TOTAL OF          5 INNER ITERATIONS.
    ------------------------------------------------

 NO OUTPUT CONTROL FOR STRESS PERIOD   42   TIME STEP   12
 
 SOLVING FOR HEAD 
                                                   Max.-Head-Change                         Max.-Flux-Residual
  Residual-Control   Outer-Iter.   Inner-Iter.     Column Row Layer    Maximum-Head-Change  Column Row Layer    Maximum-Flux-Residual          L2-NORM 
          0                 1           2             4    7     1      -0.1127022483E-01       4    7    1        -0.5927464388E+00      0.1359462959E+01
          0                 2           2             4    7     1       0.1096283957E-02       4    7    1         0.5927454043E-01      0.1359457154E+00
          0                 3           1             4    7     1      -0.7465288873E-04       4    7    1        -0.4149220610E-02      0.9516170126E-02

    ------------------------------------------------
       NWT REQUIRED            3 OUTER ITERATIONS 
       AND A TOTAL OF          5 INNER ITERATIONS.
    ------------------------------------------------

 NO OUTPUT CONTROL FOR STRESS PERIOD   42   TIME STEP   13
 
 SOLVING FOR HEAD 
                                                   Max.-Head-Change                         Max.-Flux-Residual
  Residual-Control   Outer-Iter.   Inner-Iter.     Column Row Layer    Maximum-Head-Change  Column Row Layer    Maximum-Flux-Residual          L2-NORM 
          0                 1           2             4    7     1      -0.1113172574E-01       4    7    1        -0.5855811876E+00      0.1335626587E+01
          0                 2           2             4    7     1       0.1082753153E-02       4    7    1         0.5855801348E-01      0.1334454120E+00
          0                 3           1             4    7     1      -0.7373149081E-04       4    7    1        -0.4099063714E-02      0.9341154099E-02

    ------------------------------------------------
       NWT REQUIRED            3 OUTER ITERATIONS 
       AND A TOTAL OF          5 INNER ITERATIONS.
    ------------------------------------------------

 NO OUTPUT CONTROL FOR STRESS PERIOD   42   TIME STEP   14
 
 SOLVING FOR HEAD 
                                                   Max.-Head-Change                         Max.-Flux-Residual
  Residual-Control   Outer-Iter.   Inner-Iter.     Column Row Layer    Maximum-Head-Change  Column Row Layer    Maximum-Flux-Residual          L2-NORM 
          0                 1           2             4    7     1      -0.1099307469E-01       4    7    1        -0.5783885429E+00      0.1312749595E+01
          0                 2           2             4    7     1       0.1069324786E-02       4    7    1         0.5783874783E-01      0.1312744532E+00
          0                 3           1             4    7     1      -0.7281706884E-04       4    7    1        -0.4048715095E-02      0.9189195783E-02

    ------------------------------------------------
       NWT REQUIRED            3 OUTER ITERATIONS 
       AND A TOTAL OF          5 INNER ITERATIONS.
    ------------------------------------------------

 NO OUTPUT CONTROL FOR STRESS PERIOD   42   TIME STEP   15
 
 SOLVING FOR HEAD 
                                                   Max.-Head-Change                         Max.-Flux-Residual
  Residual-Control   Outer-Iter.   Inner-Iter.     Column Row Layer    Maximum-Head-Change  Column Row Layer    Maximum-Flux-Residual          L2-NORM 
          0                 1           2             4    7     1      -0.1085428731E-01       4    7    1        -0.5711817955E+00      0.1290726086E+01
          0                 2           2             4    7     1       0.1055824548E-02       4    7    1         0.5711807220E-01      0.1290720943E+00
          0                 3           1             4    7     1      -0.7189775305E-04       4    7    1        -0.3998267790E-02      0.9035019267E-02

    ------------------------------------------------
       NWT REQUIRED            3 OUTER ITERATIONS 
       AND A TOTAL OF          5 INNER ITERATIONS.
    ------------------------------------------------

 NO OUTPUT CONTROL FOR STRESS PERIOD   42   TIME STEP   16
 
 SOLVING FOR HEAD 
                                                   Max.-Head-Change                         Max.-Flux-Residual
  Residual-Control   Outer-Iter.   Inner-Iter.     Column Row Layer    Maximum-Head-Change  Column Row Layer    Maximum-Flux-Residual          L2-NORM 
          0                 1           2             4    7     1      -0.1071547490E-01       4    7    1        -0.5639637758E+00      0.1269464736E+01
          0                 2           2             4    7     1       0.1042321879E-02       4    7    1         0.5639626970E-01      0.1269459636E+00
          0                 3           1             4    7     1      -0.7097827147E-04       4    7    1        -0.3947741614E-02      0.8886188070E-02

    ------------------------------------------------
       NWT REQUIRED            3 OUTER ITERATIONS 
       AND A TOTAL OF          5 INNER ITERATIONS.
    ------------------------------------------------

 NO OUTPUT CONTROL FOR STRESS PERIOD   42   TIME STEP   17
 
 SOLVING FOR HEAD 
                                                   Max.-Head-Change                         Max.-Flux-Residual
  Residual-Control   Outer-Iter.   Inner-Iter.     Column Row Layer    Maximum-Head-Change  Column Row Layer    Maximum-Flux-Residual          L2-NORM 
          0                 1           2             4    7     1      -0.1057708273E-01       4    7    1        -0.5567591062E+00      0.1248933707E+01
          0                 2           2             4    7     1       0.1028860092E-02       4    7    1         0.5567580249E-01      0.1248928594E+00
          0                 3           1             4    7     1      -0.7006157329E-04       4    7    1        -0.3897308867E-02      0.8742464855E-02

    ------------------------------------------------
       NWT REQUIRED            3 OUTER ITERATIONS 
       AND A TOTAL OF          5 INNER ITERATIONS.
    ------------------------------------------------

 NO OUTPUT CONTROL FOR STRESS PERIOD   42   TIME STEP   18
 
 SOLVING FOR HEAD 
                                                   Max.-Head-Change                         Max.-Flux-Residual
  Residual-Control   Outer-Iter.   Inner-Iter.     Column Row Layer    Maximum-Head-Change  Column Row Layer    Maximum-Flux-Residual          L2-NORM 
          0                 1           2             4    7     1      -0.1043912462E-01       4    7    1        -0.5495689067E+00      0.1229091238E+01
          0                 2           2             4    7     1       0.1015440532E-02       4    7    1         0.5495678257E-01      0.1229086324E+00
          0                 3           1             4    7     1      -0.6914775164E-04       4    7    1        -0.3846977462E-02      0.8603571357E-02

    ------------------------------------------------
       NWT REQUIRED            3 OUTER ITERATIONS 
       AND A TOTAL OF          5 INNER ITERATIONS.
    ------------------------------------------------

 NO OUTPUT CONTROL FOR STRESS PERIOD   42   TIME STEP   19
 
 SOLVING FOR HEAD 
                                                   Max.-Head-Change                         Max.-Flux-Residual
  Residual-Control   Outer-Iter.   Inner-Iter.     Column Row Layer    Maximum-Head-Change  Column Row Layer    Maximum-Flux-Residual          L2-NORM 
          0                 1           2             4    7     1      -0.1030160955E-01       4    7    1        -0.5423938945E+00      0.1209905882E+01
          0                 2           2             4    7     1       0.1002064071E-02       4    7    1         0.5423928162E-01      0.1209900919E+00
          0                 3           1             4    7     1      -0.6823686414E-04       4    7    1        -0.3796752373E-02      0.8469271005E-02

    ------------------------------------------------
       NWT REQUIRED            3 OUTER ITERATIONS 
       AND A TOTAL OF          5 INNER ITERATIONS.
    ------------------------------------------------

 NO OUTPUT CONTROL FOR STRESS PERIOD   42   TIME STEP   20
 
 SOLVING FOR HEAD 
                                                   Max.-Head-Change                         Max.-Flux-Residual
  Residual-Control   Outer-Iter.   Inner-Iter.     Column Row Layer    Maximum-Head-Change  Column Row Layer    Maximum-Flux-Residual          L2-NORM 
          0                 1           2             4    7     1      -0.1016494167E-01       4    7    1        -0.5352564999E+00      0.1191347728E+01
          0                 2           2             4    7     1       0.9887700211E-03       4    7    1         0.5352554265E-01      0.1191342810E+00
          0                 3           1             4    7     1      -0.6733158852E-04       4    7    1        -0.3746790631E-02      0.8339375925E-02

    ------------------------------------------------
       NWT REQUIRED            3 OUTER ITERATIONS 
       AND A TOTAL OF          5 INNER ITERATIONS.
    ------------------------------------------------

 NO OUTPUT CONTROL FOR STRESS PERIOD   42   TIME STEP   21
 
 SOLVING FOR HEAD 
                                                   Max.-Head-Change                         Max.-Flux-Residual
  Residual-Control   Outer-Iter.   Inner-Iter.     Column Row Layer    Maximum-Head-Change  Column Row Layer    Maximum-Flux-Residual          L2-NORM 
          0                 1           2             4    7     1      -0.1002896337E-01       4    7    1        -0.5281483907E+00      0.1173387546E+01
          0                 2           2             4    7     1       0.9755430526E-03       4    7    1         0.5281473243E-01      0.1173382772E+00
          0                 3           1             4    7     1      -0.6643088152E-04       4    7    1        -0.3697033890E-02      0.8213656565E-02

    ------------------------------------------------
       NWT REQUIRED            3 OUTER ITERATIONS 
       AND A TOTAL OF          5 INNER ITERATIONS.
    ------------------------------------------------

 NO OUTPUT CONTROL FOR STRESS PERIOD   42   TIME STEP   22
 
 SOLVING FOR HEAD 
                                                   Max.-Head-Change                         Max.-Flux-Residual
  Residual-Control   Outer-Iter.   Inner-Iter.     Column Row Layer    Maximum-Head-Change  Column Row Layer    Maximum-Flux-Residual          L2-NORM 
          0                 1           2             4    7     1      -0.9893923381E-02       4    7    1        -0.5210833606E+00      0.1156000423E+01
          0                 2           2             4    7     1       0.9624073574E-03       4    7    1         0.5210823028E-01      0.1155995638E+00
          0                 3           1             4    7     1      -0.6553638850E-04       4    7    1        -0.3647578684E-02      0.8091940662E-02

    ------------------------------------------------
       NWT REQUIRED            3 OUTER ITERATIONS 
       AND A TOTAL OF          5 INNER ITERATIONS.
    ------------------------------------------------

 NO OUTPUT CONTROL FOR STRESS PERIOD   42   TIME STEP   23
 
 SOLVING FOR HEAD 
                                                   Max.-Head-Change                         Max.-Flux-Residual
  Residual-Control   Outer-Iter.   Inner-Iter.     Column Row Layer    Maximum-Head-Change  Column Row Layer    Maximum-Flux-Residual          L2-NORM 
          0                 1           2             4    7     1      -0.9760053513E-02       4    7    1        -0.5140743047E+00      0.1139164458E+01
          0                 2           2             4    7     1       0.9493854853E-03       4    7    1         0.5140732567E-01      0.1139159709E+00
          0                 3           1             4    7     1      -0.6464964712E-04       4    7    1        -0.3598515339E-02      0.7974087190E-02

    ------------------------------------------------
       NWT REQUIRED            3 OUTER ITERATIONS 
       AND A TOTAL OF          5 INNER ITERATIONS.
    ------------------------------------------------

 NO OUTPUT CONTROL FOR STRESS PERIOD   42   TIME STEP   24
 
 SOLVING FOR HEAD 
                                                   Max.-Head-Change                         Max.-Flux-Residual
  Residual-Control   Outer-Iter.   Inner-Iter.     Column Row Layer    Maximum-Head-Change  Column Row Layer    Maximum-Flux-Residual          L2-NORM 
          0                 1           2             4    7     1      -0.9627168639E-02       4    7    1        -0.5071112783E+00      0.1122850863E+01
          0                 2           2             4    7     1       0.9364594289E-03       4    7    1         0.5071102420E-01      0.1122846049E+00
          0                 3           1             4    7     1      -0.6376943058E-04       4    7    1        -0.3549774206E-02      0.7859879225E-02

    ------------------------------------------------
       NWT REQUIRED            3 OUTER ITERATIONS 
       AND A TOTAL OF          5 INNER ITERATIONS.
    ------------------------------------------------

 NO OUTPUT CONTROL FOR STRESS PERIOD   42   TIME STEP   25
 
 SOLVING FOR HEAD 
                                                   Max.-Head-Change                         Max.-Flux-Residual
  Residual-Control   Outer-Iter.   Inner-Iter.     Column Row Layer    Maximum-Head-Change  Column Row Layer    Maximum-Flux-Residual          L2-NORM 
          0                 1           2             4    7     1      -0.9495618538E-02       4    7    1        -0.5002139677E+00      0.1107032993E+01
          0                 2           2             4    7     1       0.9236632105E-03       4    7    1         0.5002129437E-01      0.1107028293E+00
          0                 3           1             4    7     1      -0.6289805522E-04       4    7    1        -0.3501493082E-02      0.7749175755E-02

    ------------------------------------------------
       NWT REQUIRED            3 OUTER ITERATIONS 
       AND A TOTAL OF          5 INNER ITERATIONS.
    ------------------------------------------------

 NO OUTPUT CONTROL FOR STRESS PERIOD   42   TIME STEP   26
 
 SOLVING FOR HEAD 
                                                   Max.-Head-Change                         Max.-Flux-Residual
  Residual-Control   Outer-Iter.   Inner-Iter.     Column Row Layer    Maximum-Head-Change  Column Row Layer    Maximum-Flux-Residual          L2-NORM 
          0                 1           2             4    7     1      -0.9365201997E-02       4    7    1        -0.4933712240E+00      0.1091701470E+01
          0                 2           2             4    7     1       0.9109772588E-03       4    7    1         0.4933702138E-01      0.1091696877E+00
          0                 3           1             4    7     1      -0.6203418902E-04       4    7    1        -0.3453593950E-02      0.7641855905E-02

    ------------------------------------------------
       NWT REQUIRED            3 OUTER ITERATIONS 
       AND A TOTAL OF          5 INNER ITERATIONS.
    ------------------------------------------------

 NO OUTPUT CONTROL FOR STRESS PERIOD   42   TIME STEP   27
 
 SOLVING FOR HEAD 
                                                   Max.-Head-Change                         Max.-Flux-Residual
  Residual-Control   Outer-Iter.   Inner-Iter.     Column Row Layer    Maximum-Head-Change  Column Row Layer    Maximum-Flux-Residual          L2-NORM 
          0                 1           2             4    7     1      -0.9236255652E-02       4    7    1        -0.4866018982E+00      0.1076833525E+01
          0                 2           2             4    7     1       0.8984343174E-03       4    7    1         0.4866009023E-01      0.1076828992E+00
          0                 3           1             4    7     1      -0.6118006086E-04       4    7    1        -0.3406208731E-02      0.7537775786E-02

    ------------------------------------------------
       NWT REQUIRED            3 OUTER ITERATIONS 
       AND A TOTAL OF          5 INNER ITERATIONS.
    ------------------------------------------------

 NO OUTPUT CONTROL FOR STRESS PERIOD   42   TIME STEP   28
 
 SOLVING FOR HEAD 
                                                   Max.-Head-Change                         Max.-Flux-Residual
  Residual-Control   Outer-Iter.   Inner-Iter.     Column Row Layer    Maximum-Head-Change  Column Row Layer    Maximum-Flux-Residual          L2-NORM 
          0                 1           2             4    7     1      -0.9108558691E-02       4    7    1        -0.4798941614E+00      0.1062401205E+01
          0                 2           2             4    7     1       0.8860129085E-03       4    7    1         0.4798931806E-01      0.1062396648E+00
          0                 3           1             4    7     1      -0.6033420893E-04       4    7    1        -0.3359254644E-02      0.7436748269E-02

    ------------------------------------------------
       NWT REQUIRED            3 OUTER ITERATIONS 
       AND A TOTAL OF          5 INNER ITERATIONS.
    ------------------------------------------------

 NO OUTPUT CONTROL FOR STRESS PERIOD   42   TIME STEP   29
 
 SOLVING FOR HEAD 
                                                   Max.-Head-Change                         Max.-Flux-Residual
  Residual-Control   Outer-Iter.   Inner-Iter.     Column Row Layer    Maximum-Head-Change  Column Row Layer    Maximum-Flux-Residual          L2-NORM 
          0                 1           2             4    7     1      -0.8982436956E-02       4    7    1        -0.4732658470E+00      0.1048402691E+01
          0                 2           2             4    7     1       0.8737447268E-03       4    7    1         0.4732648821E-01      0.1048398227E+00
          0                 3           1             4    7     1      -0.5949879086E-04       4    7    1        -0.3312856511E-02      0.7338779749E-02

    ------------------------------------------------
       NWT REQUIRED            3 OUTER ITERATIONS 
       AND A TOTAL OF          5 INNER ITERATIONS.
    ------------------------------------------------

 NO OUTPUT CONTROL FOR STRESS PERIOD   42   TIME STEP   30



 STREAM LISTING     PERIOD     42   STEP       30

 LAYER ROW COL. STREAM  RCH.  FLOW INTO     FLOW TO   FLOW OUT OF   OVRLND.     DIRECT     STREAM       STREAM     STREAM     STREAM   STREAMBED  STREAMBED
                SEG.NO.  NO.  STRM. RCH.    AQUIFER    STRM. RCH.    RUNOFF     PRECIP       ET          HEAD       DEPTH      WIDTH   CONDCTNC.   GRADIENT

   1    1    1     1     1    1.9000E+01  2.1427E-01   1.8786E+01  0.000E+00  0.000E+00  0.000E+00  1.09413E+03  1.082E+00  1.166E+01  5.249E-02  1.361E+00
   1    2    2     1     2    1.8786E+01  3.3054E-01   1.8455E+01  0.000E+00  0.000E+00  0.000E+00  1.08914E+03  1.077E+00  1.158E+01  8.107E-02  1.359E+00
   1    3    3     1     3    1.8455E+01  2.8064E-01   1.8175E+01  0.000E+00  0.000E+00  0.000E+00  1.08349E+03  1.072E+00  1.149E+01  6.892E-02  1.357E+00
   1    3    4     1     4    1.8175E+01  2.5740E-01   1.7917E+01  0.000E+00  0.000E+00  0.000E+00  1.07848E+03  1.068E+00  1.140E+01  6.328E-02  1.356E+00
   1    4    5     2     1    1.5917E+01  3.0542E-01   1.5612E+01  0.000E+00  0.000E+00  0.000E+00  1.07285E+03  9.157E-01  1.200E+01  7.800E-02  1.305E+00
   1    5    6     2     2    1.5612E+01  2.3438E-01   1.5377E+01  0.000E+00  0.000E+00  0.000E+00  1.06742E+03  9.063E-01  1.200E+01  6.000E-02  1.302E+00
   1    6    6     2     3    1.5377E+01  2.3388E-01   1.5143E+01  0.000E+00  0.000E+00  0.000E+00  1.06269E+03  8.980E-01  1.200E+01  6.000E-02  1.299E+00
   1    7    6     2     4    1.5143E+01  2.3338E-01   1.4910E+01  0.000E+00  0.000E+00  0.000E+00  1.05797E+03  8.897E-01  1.200E+01  6.000E-02  1.297E+00
   1    8    6     2     5    1.4910E+01  2.3289E-01   1.4677E+01  0.000E+00  0.000E+00  0.000E+00  1.05324E+03  8.814E-01  1.200E+01  6.000E-02  1.294E+00
   1    3    5     3     1    2.0000E+00  2.8252E-01   1.7175E+00  0.000E+00  0.000E+00  0.000E+00  1.07555E+03  1.909E+00  9.636E+00  7.227E-02  1.955E+00
   1    3    6     3     2    1.7175E+00  2.4905E-01   1.4684E+00  0.000E+00  0.000E+00  0.000E+00  1.07264E+03  1.727E+00  8.909E+00  6.682E-02  1.864E+00
   1    3    7     3     3    1.4684E+00  1.9718E-01   1.2712E+00  0.000E+00  0.000E+00  0.000E+00  1.06987E+03  1.555E+00  8.218E+00  5.547E-02  1.777E+00
   1    4    8     3     4    1.2712E+00  2.2567E-01   1.0456E+00  0.000E+00  0.000E+00  0.000E+00  1.06682E+03  1.364E+00  7.455E+00  6.709E-02  1.682E+00
   1    5    8     3     5    1.0456E+00  1.5790E-01   8.8768E-01  0.000E+00  0.000E+00  0.000E+00  1.06362E+03  1.164E+00  6.655E+00  4.991E-02  1.582E+00
   1    6    8     3     6    8.8768E-01  5.5980E-02   8.3170E-01  0.000E+00  0.000E+00  0.000E+00  1.06158E+03  1.036E+00  6.145E+00  1.844E-02  1.518E+00
   1    5   10     4     1    1.0000E+01  9.0919E-02   9.9091E+00  0.000E+00  0.000E+00  0.000E+00  1.07836E+03  6.368E-01  1.000E+01  2.500E-02  1.212E+00
   1    5    9     4     2    9.9091E+00  1.8158E-01   9.7275E+00  0.000E+00  0.000E+00  0.000E+00  1.07154E+03  6.315E-01  1.000E+01  5.000E-02  1.211E+00
   1    6    8     4     3    9.7275E+00  1.2689E-01   9.6006E+00  0.000E+00  0.000E+00  0.000E+00  1.06381E+03  6.256E-01  1.000E+01  3.500E-02  1.209E+00
   1    6    8     5     1    1.0432E+01  2.2686E-01   1.0205E+01  0.000E+00  0.000E+00  0.000E+00  1.05868E+03  6.790E-01  1.542E+01  6.166E-02  1.226E+00
   1    7    7     5     2    1.0205E+01  2.7894E-01   9.9265E+00  0.000E+00  0.000E+00  0.000E+00  1.05417E+03  6.732E-01  1.519E+01  7.594E-02  1.224E+00
   1    8    7     5     3    9.9265E+00  1.9221E-01   9.7343E+00  0.000E+00  0.000E+00  0.000E+00  1.04992E+03  6.676E-01  1.497E+01  5.241E-02  1.223E+00
   1    8    6     5     4    9.7343E+00  1.3577E-01   9.5985E+00  0.000E+00  0.000E+00  0.000E+00  1.04691E+03  6.637E-01  1.482E+01  3.706E-02  1.221E+00
   1    9    6     6     1    2.4276E+01  2.5176E-01   2.4024E+01  0.000E+00  0.000E+00  0.000E+00  1.04392E+03  1.196E+00  1.200E+01  6.000E-02  1.399E+00
   1   10    7     6     2    2.4024E+01  2.5131E-01   2.3773E+01  0.000E+00  0.000E+00  0.000E+00  1.03937E+03  1.188E+00  1.200E+01  6.000E-02  1.396E+00
   1   11    7     6     3    2.3773E+01  2.5086E-01   2.3522E+01  0.000E+00  0.000E+00  0.000E+00  1.03482E+03  1.181E+00  1.200E+01  6.000E-02  1.394E+00
   1   12    7     6     4    2.3522E+01  2.5041E-01   2.3271E+01  0.000E+00  0.000E+00  0.000E+00  1.03026E+03  1.173E+00  1.200E+01  6.000E-02  1.391E+00
   1   13    7     6     5    2.3271E+01  1.1113E-02   2.3260E+01  0.000E+00  0.000E+00  0.000E+00  1.02708E+03  1.170E+00  1.200E+01  2.400E-02  1.543E-01
   1   14    9     7     1    1.5000E+02  1.3703E+00   1.4863E+02  0.000E+00  0.000E+00  0.000E+00  1.03987E+03  2.288E+00  5.529E+01  5.593E-01  8.167E-01
   1   13    8     7     2    1.4863E+02  1.9710E+00   1.4666E+02  0.000E+00  0.000E+00  0.000E+00  1.03478E+03  2.279E+00  5.525E+01  6.147E-01  1.069E+00
   1   13    7     7     3    1.4666E+02  1.7157E+00   1.4494E+02  0.000E+00  0.000E+00  0.000E+00  1.02969E+03  2.269E+00  5.521E+01  5.584E-01  1.024E+00
   1   13    6     8     1    1.6820E+02  1.1499E+00   1.6705E+02  0.000E+00  0.000E+00  0.000E+00  1.02481E+03  2.937E+00  4.258E+01  4.339E-01  8.833E-01
   1   13    5     8     2    1.6705E+02  3.8553E-01   1.6667E+02  0.000E+00  0.000E+00  0.000E+00  1.01856E+03  2.932E+00  4.251E+01  4.332E-01  2.967E-01
   1   13    4     8     3    1.6667E+02 -1.7367E+00   1.6840E+02  0.000E+00  0.000E+00  0.000E+00  1.01231E+03  2.936E+00  4.257E+01  4.338E+00 -1.334E-01
   1   13    3     8     4    1.6840E+02 -3.3036E+00   1.7171E+02  0.000E+00  0.000E+00  0.000E+00  1.00608E+03  2.953E+00  4.281E+01  4.363E+00 -2.524E-01
   1   13    2     8     5    1.7171E+02 -2.4914E+00   1.7420E+02  0.000E+00  0.000E+00  0.000E+00  9.99846E+02  2.971E+00  4.308E+01  4.390E+00 -1.892E-01
   1   13    1     8     6    1.7420E+02 -1.9603E+00   1.7616E+02  0.000E+00  0.000E+00  0.000E+00  9.94861E+02  2.986E+00  4.329E+01  2.647E+00 -2.469E-01





UNSATURATED ZONE PACKAGE VOLUMETRIC BUDGET FOR  TIME STEP    30 STRESS PERIOD   42
  ------------------------------------------------------------------------------



     CUMULATIVE VOLUMES      L**3       RATES FOR THIS TIME STEP      L**3/T
     ------------------                 ------------------------

           IN:                                      IN:
           ---                                      ---
        INFILTRATION =  1548410094.7385          INFILTRATION =           8.3175

          OUT:                                     OUT:
          ----                                     ----
              UZF ET =  1332281944.6474                UZF ET =           8.3175
        UZF RECHARGE =   216053968.0352          UZF RECHARGE =       0.0000E+00

            IN - OUT =       74182.0558              IN - OUT =       0.0000E+00

          STORAGE:                                 STORAGE:
          --------                                 --------
      STORAGE CHANGE =       74160.8959        STORAGE CHANGE =       8.4612E-15

 PERCENT DISCREPANCY IS DIFFERENCE BETWEEN IN-OUT MINUS CHANGE IN STORAGE
 DIVIDED BY THE AVERAGE OF IN AND OUT TIMES 100

 PERCENT DISCREPANCY =           0.00     PERCENT DISCREPANCY =           0.00






1
  VOLUMETRIC BUDGET FOR AGRICULTURAL FIELDS AT  END OF TIME STEP   30, STRESS PERIOD  42
  ------------------------------------------------------------------------------

     CUMULATIVE VOLUMES      L**3       RATES FOR THIS TIME STEP      L**3/T
     ------------------                 ------------------------

           IN:                                      IN:
           ---                                      ---
               AG WELLS  =  1456948864.0000                 AG WELLS  =           7.4700
      DIVERSION SEGMENTS =           0.0000        DIVERSION SEGMENTS =           0.0000
           GW IRRIGATION =           0.0000             GW IRRIGATION =           0.0000
           SW IRRIGATION =           0.0000             SW IRRIGATION =           0.0000
        SYSTEM LOSSES GW =           0.0000          SYSTEM LOSSES GW =           0.0000
        SYSTEM LOSSES SW =           0.0000          SYSTEM LOSSES SW =           0.0000

                TOTAL IN =  1456948864.0000                  TOTAL IN =           7.4700

          OUT:                                     OUT:
          ----                                     ----
               AG WELLS  =           0.0000                 AG WELLS  =           0.0000
      DIVERSION SEGMENTS =           0.0000        DIVERSION SEGMENTS =           0.0000
           GW IRRIGATION =  1456948864.0000             GW IRRIGATION =           7.4700
           SW IRRIGATION =           0.0000             SW IRRIGATION =           0.0000
        SYSTEM LOSSES GW =           0.0000          SYSTEM LOSSES GW =           0.0000
        SYSTEM LOSSES SW =           0.0000          SYSTEM LOSSES SW =           0.0000

               TOTAL OUT =  1456948864.0000                 TOTAL OUT =           7.4700

                IN - OUT =           0.0000                  IN - OUT =           0.0000

     PERCENT DISCREPANCY =           0.00         PERCENT DISCREPANCY =           0.00



1
  VOLUMETRIC BUDGET FOR ENTIRE MODEL AT END OF TIME STEP   30, STRESS PERIOD  42
  ------------------------------------------------------------------------------

     CUMULATIVE VOLUMES      L**3       RATES FOR THIS TIME STEP      L**3/T
     ------------------                 ------------------------

           IN:                                      IN:
           ---                                      ---
             STORAGE     =  1907209600.0000               STORAGE     =           5.4866
       CONSTANT HEAD     =           0.0000         CONSTANT HEAD     =           0.0000
     HEAD DEP BOUNDS     =    30874486.0000       HEAD DEP BOUNDS     =           0.2881
      STREAM LEAKAGE     =  1322904064.0000        STREAM LEAKAGE     =          12.3322
        UZF RECHARGE     =   216053968.0000          UZF RECHARGE     =           0.0000
               GW ET     =           0.0000                 GW ET     =           0.0000
     SURFACE LEAKAGE     =           0.0000       SURFACE LEAKAGE     =           0.0000
           AG WELLS      =           0.0000             AG WELLS      =           0.0000

                TOTAL IN =  3477042176.0000                  TOTAL IN =          18.1068

          OUT:                                     OUT:
          ----                                     ----
             STORAGE     =   875269056.0000               STORAGE     =           0.8546
       CONSTANT HEAD     =           0.0000         CONSTANT HEAD     =           0.0000
     HEAD DEP BOUNDS     =    31511728.0000       HEAD DEP BOUNDS     =           0.2888
      STREAM LEAKAGE     =  1095767040.0000        STREAM LEAKAGE     =           9.4921
        UZF RECHARGE     =           0.0000          UZF RECHARGE     =           0.0000
               GW ET     =    17516984.0000                 GW ET     =           0.0000
     SURFACE LEAKAGE     =           0.0000       SURFACE LEAKAGE     =           0.0000
           AG WELLS      =  1456948864.0000             AG WELLS      =           7.4700

               TOTAL OUT =  3477013504.0000                 TOTAL OUT =          18.1055

                IN - OUT =       28672.0000                  IN - OUT =       1.3275E-03

     PERCENT DISCREPANCY =           0.00         PERCENT DISCREPANCY =           0.01






         TIME SUMMARY AT END OF TIME STEP   30 IN STRESS PERIOD   42
                    SECONDS     MINUTES      HOURS       DAYS        YEARS
                    -----------------------------------------------------------
   TIME STEP LENGTH  87667.      1461.1      24.352      1.0147     2.77799E-03
 STRESS PERIOD TIME 2.63000E+06  43833.      730.56      30.440     8.33397E-02
         TOTAL TIME 1.07916E+08 1.79859E+06  29977.      1249.0      3.4196    
1
1
                            STRESS PERIOD NO.   43, LENGTH =   2630000.    
                            -----------------------------------------------

                              NUMBER OF TIME STEPS =    30

                               MULTIPLIER FOR DELT =     1.000

                            INITIAL TIME STEP SIZE =   87666.66    

 REUSING NON-PARAMETER GHB CELLS FROM LAST STRESS PERIOD

      2 GHB CELLS

 REUSING STREAM SEGMENT DATA FROM LAST STRESS PERIOD



            AREAL INFILTRATION RATE
 READING ON UNIT   19 WITH FORMAT: (FREE)              

            1           2           3           4           5           6           7           8           9          10
 ........................................................................................................................
   1   1.0000E-10  2.0000E-10   0.000       0.000       0.000       0.000       0.000       0.000       0.000       0.000    
   2   2.0000E-10  1.0000E-10  2.0000E-10   0.000       0.000      8.0000E-10  8.0000E-10  5.0000E-10   0.000       0.000    
   3    0.000      5.0000E-10  1.0000E-10  1.0000E-10  8.0000E-10  8.0000E-10  5.0000E-10  5.0000E-10   0.000       0.000    
   4   8.0000E-10  5.0000E-10  1.0000E-10  1.0000E-10  1.0000E-10  1.0000E-10  1.0000E-10  1.0000E-10  2.0000E-10   0.000    
   5   8.0000E-10  5.0000E-10  1.0000E-10  1.0000E-10  1.0000E-10  1.0000E-10  1.0000E-10  1.0000E-10  1.0000E-10  1.0000E-10
   6   8.0000E-10  5.0000E-10  5.0000E-10  2.0000E-10  2.0000E-10  1.0000E-10  1.0000E-10  1.0000E-10  1.0000E-10  5.0000E-10
   7   8.0000E-10  5.0000E-10  5.0000E-10  2.0000E-10  2.0000E-10  1.0000E-10  1.0000E-10  2.0000E-10  2.0000E-10   0.000    
   8    0.000      5.0000E-10  5.0000E-10  2.0000E-10  2.0000E-10  1.0000E-10  1.0000E-10  2.0000E-10  5.0000E-10   0.000    
   9    0.000      5.0000E-10  5.0000E-10  2.0000E-10  2.0000E-10  1.0000E-10  1.0000E-10  2.0000E-10  5.0000E-10   0.000    
  10    0.000      5.0000E-10  5.0000E-10  2.0000E-10  2.0000E-10  1.0000E-10  1.0000E-10  2.0000E-10  5.0000E-10  8.0000E-10
  11    0.000      1.0000E-10  1.0000E-10  1.0000E-10  1.0000E-10  1.0000E-10  1.0000E-10  2.0000E-10  5.0000E-10   0.000    
  12   1.0000E-10  1.0000E-10  1.0000E-10  1.0000E-10  1.0000E-10  1.0000E-10  1.0000E-10  1.0000E-10  2.0000E-10   0.000    
  13   1.0000E-10  1.0000E-10  2.0000E-10  2.0000E-10  2.0000E-10  2.0000E-10  2.0000E-10  1.0000E-10  1.0000E-10   0.000    
  14    0.000      2.0000E-10  5.0000E-10  5.0000E-10  5.0000E-10  5.0000E-10  5.0000E-10  2.0000E-10  1.0000E-10   0.000    
  15    0.000       0.000      8.0000E-10  8.0000E-10  8.0000E-10  8.0000E-10   0.000       0.000       0.000       0.000    

                  ET RATE =  1.500000E-07

 USING ET EXTINCTION DEPTH FROM PREVIOUS STRESS PERIOD. CURRENT PERIOD IS:      43

 USING EXTINCTION WATER CONTENT FROM PREVIOUS STRESS PERIOD. CURRENT PERIOD IS:      43

 USING AIR ENTRY PRESSURE FROM PREVIOUS STRESS PERIOD. CURRENT PERIOD IS:      43

 USING ROOT PRESSURE HEAD FROM PREVIOUS STRESS PERIOD. CURRENT PERIOD IS:      43

 USING ROOT ACTIVITY FROM PREVIOUS STRESS PERIOD. CURRENT PERIOD IS:      43

 PROCESSING AG STRESS PERIOD DATA

 READING AG STRESS PERIOD DATA

 READING IRRIGATION WELL

 END PROCESSING AG STRESS PERIOD DATA OPTIONS
 
 SOLVING FOR HEAD 
                                                   Max.-Head-Change                         Max.-Flux-Residual
  Residual-Control   Outer-Iter.   Inner-Iter.     Column Row Layer    Maximum-Head-Change  Column Row Layer    Maximum-Flux-Residual          L2-NORM 
          0                 1           2             4    7     1      -0.5674335559E-01       4    7    1        -0.2966712007E+01      0.7038062572E+01
          0                 2           2             4    7     1       0.5519550739E-02       4    7    1         0.2966693121E+00      0.7037988439E+00
          0                 3           2             4    7     1      -0.3758611971E-03       4    7    1        -0.2076687642E-01      0.4926599830E-01
          0                 4           1             4    7     1       0.1495586748E-04       4    7    1         0.8493663559E-03      0.2014980668E-02

    ------------------------------------------------
       NWT REQUIRED            4 OUTER ITERATIONS 
       AND A TOTAL OF          7 INNER ITERATIONS.
    ------------------------------------------------

 NO OUTPUT CONTROL FOR STRESS PERIOD   43   TIME STEP    1
 
 SOLVING FOR HEAD 
                                                   Max.-Head-Change                         Max.-Flux-Residual
  Residual-Control   Outer-Iter.   Inner-Iter.     Column Row Layer    Maximum-Head-Change  Column Row Layer    Maximum-Flux-Residual          L2-NORM 
          0                 1           2             4    7     1      -0.5636930384E-01       4    7    1        -0.2948289509E+01      0.6914163863E+01
          0                 2           2             4    7     1       0.5483163352E-02       4    7    1         0.2948268992E+00      0.6914092074E+00
          0                 3           2             4    7     1      -0.3733833741E-03       4    7    1        -0.2063790900E-01      0.4839872302E-01
          0                 4           1             4    7     1       0.1485727255E-04       4    7    1         0.8440915835E-03      0.1979509778E-02

    ------------------------------------------------
       NWT REQUIRED            4 OUTER ITERATIONS 
       AND A TOTAL OF          7 INNER ITERATIONS.
    ------------------------------------------------

 NO OUTPUT CONTROL FOR STRESS PERIOD   43   TIME STEP    2
 
 SOLVING FOR HEAD 
                                                   Max.-Head-Change                         Max.-Flux-Residual
  Residual-Control   Outer-Iter.   Inner-Iter.     Column Row Layer    Maximum-Head-Change  Column Row Layer    Maximum-Flux-Residual          L2-NORM 
          0                 1           2             4    7     1      -0.5597766724E-01       4    7    1        -0.2928857973E+01      0.6796098896E+01
          0                 2           2             4    7     1       0.5445065711E-02       4    7    1         0.2928836007E+00      0.6796029372E+00
          0                 3           2             4    7     1      -0.3707890862E-03       4    7    1        -0.2050187943E-01      0.4757228177E-01
          0                 4           1             4    7     1       0.1475404327E-04       4    7    1         0.8385279452E-03      0.1945708516E-02

    ------------------------------------------------
       NWT REQUIRED            4 OUTER ITERATIONS 
       AND A TOTAL OF          7 INNER ITERATIONS.
    ------------------------------------------------

 NO OUTPUT CONTROL FOR STRESS PERIOD   43   TIME STEP    3
 
 SOLVING FOR HEAD 
                                                   Max.-Head-Change                         Max.-Flux-Residual
  Residual-Control   Outer-Iter.   Inner-Iter.     Column Row Layer    Maximum-Head-Change  Column Row Layer    Maximum-Flux-Residual          L2-NORM 
          0                 1           2             4    7     1      -0.5556994494E-01       4    7    1        -0.2908500038E+01      0.6683445146E+01
          0                 2           2             4    7     1       0.5405403622E-02       4    7    1         0.2908476796E+00      0.6683377790E+00
          0                 3           2             4    7     1      -0.3680882634E-03       4    7    1        -0.2035936612E-01      0.4678371843E-01
          0                 4           1             4    7     1       0.1464657511E-04       4    7    1         0.8326991478E-03      0.1913461699E-02

    ------------------------------------------------
       NWT REQUIRED            4 OUTER ITERATIONS 
       AND A TOTAL OF          7 INNER ITERATIONS.
    ------------------------------------------------

 NO OUTPUT CONTROL FOR STRESS PERIOD   43   TIME STEP    4
 
 SOLVING FOR HEAD 
                                                   Max.-Head-Change                         Max.-Flux-Residual
  Residual-Control   Outer-Iter.   Inner-Iter.     Column Row Layer    Maximum-Head-Change  Column Row Layer    Maximum-Flux-Residual          L2-NORM 
          0                 1           2             4    7     1      -0.5514808828E-01       4    7    1        -0.2887322708E+01      0.6575831405E+01
          0                 2           2             4    7     1       0.5364366877E-02       4    7    1         0.2887298348E+00      0.6575766116E+00
          0                 3           2             4    7     1      -0.3652938283E-03       4    7    1        -0.2021111795E-01      0.4603043242E-01
          0                 4           1             4    7     1       0.1453538165E-04       4    7    1         0.8266357768E-03      0.1882647134E-02

    ------------------------------------------------
       NWT REQUIRED            4 OUTER ITERATIONS 
       AND A TOTAL OF          7 INNER ITERATIONS.
    ------------------------------------------------

 NO OUTPUT CONTROL FOR STRESS PERIOD   43   TIME STEP    5
 
 SOLVING FOR HEAD 
                                                   Max.-Head-Change                         Max.-Flux-Residual
  Residual-Control   Outer-Iter.   Inner-Iter.     Column Row Layer    Maximum-Head-Change  Column Row Layer    Maximum-Flux-Residual          L2-NORM 
          0                 1           2             4    7     1      -0.5471339064E-01       4    7    1        -0.2865397891E+01      0.6472898019E+01
          0                 2           2             4    7     1       0.5322091269E-02       4    7    1         0.2865372558E+00      0.6478112637E+00
          0                 3           2             4    7     1      -0.3624150210E-03       4    7    1        -0.2005763829E-01      0.4534683075E-01
          0                 4           1             4    7     1       0.1442083153E-04       4    7    1         0.8203584521E-03      0.1854686906E-02

    ------------------------------------------------
       NWT REQUIRED            4 OUTER ITERATIONS 
       AND A TOTAL OF          7 INNER ITERATIONS.
    ------------------------------------------------

 NO OUTPUT CONTROL FOR STRESS PERIOD   43   TIME STEP    6
 
 SOLVING FOR HEAD 
                                                   Max.-Head-Change                         Max.-Flux-Residual
  Residual-Control   Outer-Iter.   Inner-Iter.     Column Row Layer    Maximum-Head-Change  Column Row Layer    Maximum-Flux-Residual          L2-NORM 
          0                 1           2             4    7     1      -0.5426741911E-01       4    7    1        -0.2842814066E+01      0.6373915309E+01
          0                 2           2             4    7     1       0.5278700050E-02       4    7    1         0.2842787893E+00      0.6373880092E+00
          0                 3           2             4    7     1      -0.3594602519E-03       4    7    1        -0.1989954635E-01      0.4461719970E-01
          0                 4           1             4    7     1       0.1430325839E-04       4    7    1         0.8138924795E-03      0.1824845825E-02

    ------------------------------------------------
       NWT REQUIRED            4 OUTER ITERATIONS 
       AND A TOTAL OF          7 INNER ITERATIONS.
    ------------------------------------------------

 NO OUTPUT CONTROL FOR STRESS PERIOD   43   TIME STEP    7
 
 SOLVING FOR HEAD 
                                                   Max.-Head-Change                         Max.-Flux-Residual
  Residual-Control   Outer-Iter.   Inner-Iter.     Column Row Layer    Maximum-Head-Change  Column Row Layer    Maximum-Flux-Residual          L2-NORM 
          0                 1           2             4    7     1      -0.5381157674E-01       4    7    1        -0.2819646725E+01      0.6278763127E+01
          0                 2           2             4    7     1       0.5234357967E-02       4    7    1         0.2819619836E+00      0.6278727766E+00
          0                 3           2             4    7     1      -0.3564407314E-03       4    7    1        -0.1973737059E-01      0.4395113708E-01
          0                 4           1             4    7     1       0.1418310892E-04       4    7    1         0.8072594846E-03      0.1797605001E-02

    ------------------------------------------------
       NWT REQUIRED            4 OUTER ITERATIONS 
       AND A TOTAL OF          7 INNER ITERATIONS.
    ------------------------------------------------

 NO OUTPUT CONTROL FOR STRESS PERIOD   43   TIME STEP    8
 
 SOLVING FOR HEAD 
                                                   Max.-Head-Change                         Max.-Flux-Residual
  Residual-Control   Outer-Iter.   Inner-Iter.     Column Row Layer    Maximum-Head-Change  Column Row Layer    Maximum-Flux-Residual          L2-NORM 
          0                 1           2             4    7     1      -0.5334686237E-01       4    7    1        -0.2795952482E+01      0.6187482120E+01
          0                 2           2             4    7     1       0.5189153048E-02       4    7    1         0.2795924990E+00      0.6187446668E+00
          0                 3           2             4    7     1      -0.3533624519E-03       4    7    1        -0.1957150714E-01      0.4331216788E-01
          0                 4           1             4    7     1       0.1406062098E-04       4    7    1         0.8004756423E-03      0.1771469021E-02

    ------------------------------------------------
       NWT REQUIRED            4 OUTER ITERATIONS 
       AND A TOTAL OF          7 INNER ITERATIONS.
    ------------------------------------------------

 NO OUTPUT CONTROL FOR STRESS PERIOD   43   TIME STEP    9
 
 SOLVING FOR HEAD 
                                                   Max.-Head-Change                         Max.-Flux-Residual
  Residual-Control   Outer-Iter.   Inner-Iter.     Column Row Layer    Maximum-Head-Change  Column Row Layer    Maximum-Flux-Residual          L2-NORM 
          0                 1           2             4    7     1      -0.5287475982E-01       4    7    1        -0.2771812866E+01      0.6099848893E+01
          0                 2           2             4    7     1       0.5143229615E-02       4    7    1         0.2771784876E+00      0.6099813471E+00
          0                 3           2             4    7     1      -0.3502352436E-03       4    7    1        -0.1940252673E-01      0.4269873882E-01
          0                 4           1             4    7     1       0.1393618635E-04       4    7    1         0.7935643366E-03      0.1746383034E-02

    ------------------------------------------------
       NWT REQUIRED            4 OUTER ITERATIONS 
       AND A TOTAL OF          7 INNER ITERATIONS.
    ------------------------------------------------

 NO OUTPUT CONTROL FOR STRESS PERIOD   43   TIME STEP   10
 
 SOLVING FOR HEAD 
                                                   Max.-Head-Change                         Max.-Flux-Residual
  Residual-Control   Outer-Iter.   Inner-Iter.     Column Row Layer    Maximum-Head-Change  Column Row Layer    Maximum-Flux-Residual          L2-NORM 
          0                 1           2             4    7     1      -0.5239612596E-01       4    7    1        -0.2747275563E+01      0.6015622800E+01
          0                 2           2             4    7     1       0.5096671007E-02       4    7    1         0.2747247170E+00      0.6015587449E+00
          0                 3           2             4    7     1      -0.3470647811E-03       4    7    1        -0.1923076312E-01      0.4210915299E-01
          0                 4           1             4    7     1       0.1381003091E-04       4    7    1         0.7865392099E-03      0.1722267361E-02

    ------------------------------------------------
       NWT REQUIRED            4 OUTER ITERATIONS 
       AND A TOTAL OF          7 INNER ITERATIONS.
    ------------------------------------------------

 NO OUTPUT CONTROL FOR STRESS PERIOD   43   TIME STEP   11
 
 SOLVING FOR HEAD 
                                                   Max.-Head-Change                         Max.-Flux-Residual
  Residual-Control   Outer-Iter.   Inner-Iter.     Column Row Layer    Maximum-Head-Change  Column Row Layer    Maximum-Flux-Residual          L2-NORM 
          0                 1           2             4    7     1      -0.5191228019E-01       4    7    1        -0.2722414249E+01      0.5934590330E+01
          0                 2           2             4    7     1       0.5049605549E-02       4    7    1         0.2722385540E+00      0.5934555142E+00
          0                 3           2             4    7     1      -0.3438598022E-03       4    7    1        -0.1905673193E-01      0.4154192791E-01
          0                 4           1             4    7     1       0.1368250153E-04       4    7    1         0.7794213070E-03      0.1699072028E-02

    ------------------------------------------------
       NWT REQUIRED            4 OUTER ITERATIONS 
       AND A TOTAL OF          7 INNER ITERATIONS.
    ------------------------------------------------

 NO OUTPUT CONTROL FOR STRESS PERIOD   43   TIME STEP   12
 
 SOLVING FOR HEAD 
                                                   Max.-Head-Change                         Max.-Flux-Residual
  Residual-Control   Outer-Iter.   Inner-Iter.     Column Row Layer    Maximum-Head-Change  Column Row Layer    Maximum-Flux-Residual          L2-NORM 
          0                 1           2             4    7     1      -0.5142393370E-01       4    7    1        -0.2697268090E+01      0.5856563678E+01
          0                 2           2             4    7     1       0.5002102413E-02       4    7    1         0.2697239145E+00      0.5856528722E+00
          0                 3           2             4    7     1      -0.3406250181E-03       4    7    1        -0.1888070730E-01      0.4099574374E-01
          0                 4           1             4    7     1       0.1355378658E-04       4    7    1         0.7722218993E-03      0.1676728996E-02

    ------------------------------------------------
       NWT REQUIRED            4 OUTER ITERATIONS 
       AND A TOTAL OF          7 INNER ITERATIONS.
    ------------------------------------------------

 NO OUTPUT CONTROL FOR STRESS PERIOD   43   TIME STEP   13
 
 SOLVING FOR HEAD 
                                                   Max.-Head-Change                         Max.-Flux-Residual
  Residual-Control   Outer-Iter.   Inner-Iter.     Column Row Layer    Maximum-Head-Change  Column Row Layer    Maximum-Flux-Residual          L2-NORM 
          0                 1           2             4    7     1      -0.5093213604E-01       4    7    1        -0.2671895893E+01      0.5781357085E+01
          0                 2           2             4    7     1       0.4954263680E-02       4    7    1         0.2671866785E+00      0.5781322389E+00
          0                 3           2             4    7     1      -0.3373673798E-03       4    7    1        -0.1870310086E-01      0.4046929766E-01
          0                 4           1             4    7     1       0.1342416199E-04       4    7    1         0.7649577738E-03      0.1655339098E-02

    ------------------------------------------------
       NWT REQUIRED            4 OUTER ITERATIONS 
       AND A TOTAL OF          7 INNER ITERATIONS.
    ------------------------------------------------

 NO OUTPUT CONTROL FOR STRESS PERIOD   43   TIME STEP   14
 
 SOLVING FOR HEAD 
                                                   Max.-Head-Change                         Max.-Flux-Residual
  Residual-Control   Outer-Iter.   Inner-Iter.     Column Row Layer    Maximum-Head-Change  Column Row Layer    Maximum-Flux-Residual          L2-NORM 
          0                 1           2             4    7     1      -0.5043760067E-01       4    7    1        -0.2646337459E+01      0.5708814702E+01
          0                 2           2             4    7     1       0.4906158741E-02       4    7    1         0.2646308254E+00      0.5708780314E+00
          0                 3           2             4    7     1      -0.3340916132E-03       4    7    1        -0.1852419117E-01      0.3996150342E-01
          0                 4           1             4    7     1       0.1329381613E-04       4    7    1         0.7576403514E-03      0.1634429095E-02

    ------------------------------------------------
       NWT REQUIRED            4 OUTER ITERATIONS 
       AND A TOTAL OF          7 INNER ITERATIONS.
    ------------------------------------------------

 NO OUTPUT CONTROL FOR STRESS PERIOD   43   TIME STEP   15
 
 SOLVING FOR HEAD 
                                                   Max.-Head-Change                         Max.-Flux-Residual
  Residual-Control   Outer-Iter.   Inner-Iter.     Column Row Layer    Maximum-Head-Change  Column Row Layer    Maximum-Flux-Residual          L2-NORM 
          0                 1           2             4    7     1      -0.4994138866E-01       4    7    1        -0.2620651705E+01      0.5638789183E+01
          0                 2           2             4    7     1       0.4857890797E-02       4    7    1         0.2620622462E+00      0.5638755125E+00
          0                 3           2             4    7     1      -0.3308047454E-03       4    7    1        -0.1834439057E-01      0.3947132934E-01
          0                 4           1             4    7     1       0.1316302853E-04       4    7    1         0.7502865014E-03      0.1614382841E-02

    ------------------------------------------------
       NWT REQUIRED            4 OUTER ITERATIONS 
       AND A TOTAL OF          7 INNER ITERATIONS.
    ------------------------------------------------

 NO OUTPUT CONTROL FOR STRESS PERIOD   43   TIME STEP   16
 
 SOLVING FOR HEAD 
                                                   Max.-Head-Change                         Max.-Flux-Residual
  Residual-Control   Outer-Iter.   Inner-Iter.     Column Row Layer    Maximum-Head-Change  Column Row Layer    Maximum-Flux-Residual          L2-NORM 
          0                 1           2             4    7     1      -0.4944395051E-01       4    7    1        -0.2594864415E+01      0.5571134053E+01
          0                 2           2             4    7     1       0.4809503663E-02       4    7    1         0.2594835189E+00      0.5571100363E+00
          0                 3           2             4    7     1      -0.3275097609E-03       4    7    1        -0.1816387957E-01      0.3899773801E-01
          0                 4           1             4    7     1       0.1303191811E-04       4    7    1         0.7429035977E-03      0.1595007710E-02

    ------------------------------------------------
       NWT REQUIRED            4 OUTER ITERATIONS 
       AND A TOTAL OF          7 INNER ITERATIONS.
    ------------------------------------------------

 NO OUTPUT CONTROL FOR STRESS PERIOD   43   TIME STEP   17
 
 SOLVING FOR HEAD 
                                                   Max.-Head-Change                         Max.-Flux-Residual
  Residual-Control   Outer-Iter.   Inner-Iter.     Column Row Layer    Maximum-Head-Change  Column Row Layer    Maximum-Flux-Residual          L2-NORM 
          0                 1           2             4    7     1      -0.4894596650E-01       4    7    1        -0.2569013565E+01      0.5505725319E+01
          0                 2           2             4    7     1       0.4761063505E-02       4    7    1         0.2568984405E+00      0.5505692005E+00
          0                 3           2             4    7     1      -0.3242111645E-03       4    7    1        -0.1798292393E-01      0.3853988330E-01
          0                 4           1             4    7     1       0.1290066401E-04       4    7    1         0.7355025054E-03      0.1576283062E-02

    ------------------------------------------------
       NWT REQUIRED            4 OUTER ITERATIONS 
       AND A TOTAL OF          7 INNER ITERATIONS.
    ------------------------------------------------

 NO OUTPUT CONTROL FOR STRESS PERIOD   43   TIME STEP   18
 
 SOLVING FOR HEAD 
                                                   Max.-Head-Change                         Max.-Flux-Residual
  Residual-Control   Outer-Iter.   Inner-Iter.     Column Row Layer    Maximum-Head-Change  Column Row Layer    Maximum-Flux-Residual          L2-NORM 
          0                 1           2             4    7     1      -0.4844819399E-01       4    7    1        -0.2543141731E+01      0.5442445148E+01
          0                 2           2             4    7     1       0.4712643984E-02       4    7    1         0.2543112682E+00      0.5442412284E+00
          0                 3           2             4    7     1      -0.3209139730E-03       4    7    1        -0.1780182170E-01      0.3809692334E-01
          0                 4           1             4    7     1       0.1276946564E-04       4    7    1         0.7280954023E-03      0.1558166399E-02

    ------------------------------------------------
       NWT REQUIRED            4 OUTER ITERATIONS 
       AND A TOTAL OF          7 INNER ITERATIONS.
    ------------------------------------------------

 NO OUTPUT CONTROL FOR STRESS PERIOD   43   TIME STEP   19
 
 SOLVING FOR HEAD 
                                                   Max.-Head-Change                         Max.-Flux-Residual
  Residual-Control   Outer-Iter.   Inner-Iter.     Column Row Layer    Maximum-Head-Change  Column Row Layer    Maximum-Flux-Residual          L2-NORM 
          0                 1           2             4    7     1      -0.4795120426E-01       4    7    1        -0.2517280877E+01      0.5381185840E+01
          0                 2           2             4    7     1       0.4664300664E-02       4    7    1         0.2517251976E+00      0.5381153399E+00
          0                 3           2             4    7     1      -0.3176219698E-03       4    7    1        -0.1762079653E-01      0.3766810907E-01
          0                 4           1             4    7     1       0.1263847380E-04       4    7    1         0.7206914743E-03      0.1540628498E-02

    ------------------------------------------------
       NWT REQUIRED            4 OUTER ITERATIONS 
       AND A TOTAL OF          7 INNER ITERATIONS.
    ------------------------------------------------

 NO OUTPUT CONTROL FOR STRESS PERIOD   43   TIME STEP   20
 
 SOLVING FOR HEAD 
                                                   Max.-Head-Change                         Max.-Flux-Residual
  Residual-Control   Outer-Iter.   Inner-Iter.     Column Row Layer    Maximum-Head-Change  Column Row Layer    Maximum-Flux-Residual          L2-NORM 
          0                 1           2             4    7     1      -0.4745538444E-01       4    7    1        -0.2491453319E+01      0.5321834295E+01
          0                 2           2             4    7     1       0.4616071197E-02       4    7    1         0.2491424602E+00      0.5321802286E+00
          0                 3           2             4    7     1      -0.3143377189E-03       4    7    1        -0.1744000467E-01      0.3725265285E-01
          0                 4           1             4    7     1       0.1250779004E-04       4    7    1         0.7132970409E-03      0.1523633805E-02

    ------------------------------------------------
       NWT REQUIRED            4 OUTER ITERATIONS 
       AND A TOTAL OF          7 INNER ITERATIONS.
    ------------------------------------------------

 NO OUTPUT CONTROL FOR STRESS PERIOD   43   TIME STEP   21
 
 SOLVING FOR HEAD 
                                                   Max.-Head-Change                         Max.-Flux-Residual
  Residual-Control   Outer-Iter.   Inner-Iter.     Column Row Layer    Maximum-Head-Change  Column Row Layer    Maximum-Flux-Residual          L2-NORM 
          0                 1           2             4    7     1      -0.4696135586E-01       4    7    1        -0.2465693737E+01      0.5264308646E+01
          0                 2           2             4    7     1       0.4568016014E-02       4    7    1         0.2465665237E+00      0.5264277116E+00
          0                 3           2             4    7     1      -0.3110653360E-03       4    7    1        -0.1725968882E-01      0.3684997515E-01
          0                 4           1             4    7     1       0.1237757900E-04       4    7    1         0.7059221330E-03      0.1507165627E-02

    ------------------------------------------------
       NWT REQUIRED            4 OUTER ITERATIONS 
       AND A TOTAL OF          7 INNER ITERATIONS.
    ------------------------------------------------

 NO OUTPUT CONTROL FOR STRESS PERIOD   43   TIME STEP   22
 
 SOLVING FOR HEAD 
                                                   Max.-Head-Change                         Max.-Flux-Residual
  Residual-Control   Outer-Iter.   Inner-Iter.     Column Row Layer    Maximum-Head-Change  Column Row Layer    Maximum-Flux-Residual          L2-NORM 
          0                 1           2             4    7     1      -0.4646942385E-01       4    7    1        -0.2440019742E+01      0.5208517521E+01
          0                 2           2             4    7     1       0.4520164811E-02       4    7    1         0.2439991485E+00      0.5208486460E+00
          0                 3           2             4    7     1      -0.3078068432E-03       4    7    1        -0.1707997225E-01      0.3645944188E-01
          0                 4           1             4    7     1       0.1224792080E-04       4    7    1         0.6985717318E-03      0.1491194436E-02

    ------------------------------------------------
       NWT REQUIRED            4 OUTER ITERATIONS 
       AND A TOTAL OF          7 INNER ITERATIONS.
    ------------------------------------------------

 NO OUTPUT CONTROL FOR STRESS PERIOD   43   TIME STEP   23
 
 SOLVING FOR HEAD 
                                                   Max.-Head-Change                         Max.-Flux-Residual
  Residual-Control   Outer-Iter.   Inner-Iter.     Column Row Layer    Maximum-Head-Change  Column Row Layer    Maximum-Flux-Residual          L2-NORM 
          0                 1           2             4    7     1      -0.4598012242E-01       4    7    1        -0.2414461768E+01      0.5154371544E+01
          0                 2           2             4    7     1       0.4472569528E-02       4    7    1         0.2414433779E+00      0.5154340953E+00
          0                 3           2             4    7     1      -0.3045657766E-03       4    7    1        -0.1690106798E-01      0.3608042309E-01
          0                 4           1             4    7     1       0.1211895544E-04       4    7    1         0.6912545164E-03      0.1475692175E-02

    ------------------------------------------------
       NWT REQUIRED            4 OUTER ITERATIONS 
       AND A TOTAL OF          7 INNER ITERATIONS.
    ------------------------------------------------

 NO OUTPUT CONTROL FOR STRESS PERIOD   43   TIME STEP   24
 
 SOLVING FOR HEAD 
                                                   Max.-Head-Change                         Max.-Flux-Residual
  Residual-Control   Outer-Iter.   Inner-Iter.     Column Row Layer    Maximum-Head-Change  Column Row Layer    Maximum-Flux-Residual          L2-NORM 
          0                 1           2             4    7     1      -0.4549382371E-01       4    7    1        -0.2389040202E+01      0.5101816242E+01
          0                 2           2             4    7     1       0.4425266358E-02       4    7    1         0.2389012503E+00      0.5101786112E+00
          0                 3           2             4    7     1      -0.3013446021E-03       4    7    1        -0.1672311870E-01      0.3571253633E-01
          0                 4           1             4    7     1       0.1199078227E-04       4    7    1         0.6839763992E-03      0.1460644383E-02

    ------------------------------------------------
       NWT REQUIRED            4 OUTER ITERATIONS 
       AND A TOTAL OF          7 INNER ITERATIONS.
    ------------------------------------------------

 NO OUTPUT CONTROL FOR STRESS PERIOD   43   TIME STEP   25
 
 SOLVING FOR HEAD 
                                                   Max.-Head-Change                         Max.-Flux-Residual
  Residual-Control   Outer-Iter.   Inner-Iter.     Column Row Layer    Maximum-Head-Change  Column Row Layer    Maximum-Flux-Residual          L2-NORM 
          0                 1           2             4    7     1      -0.4501085252E-01       4    7    1        -0.2363774338E+01      0.5050762080E+01
          0                 2           2             4    7     1       0.4378286893E-02       4    7    1         0.2363746947E+00      0.5050732425E+00
          0                 3           2             4    7     1      -0.2981454704E-03       4    7    1        -0.1654625943E-01      0.3535516073E-01
          0                 4           1             4    7     1       0.1186348602E-04       4    7    1         0.6767428545E-03      0.1446034699E-02

    ------------------------------------------------
       NWT REQUIRED            4 OUTER ITERATIONS 
       AND A TOTAL OF          7 INNER ITERATIONS.
    ------------------------------------------------

 NO OUTPUT CONTROL FOR STRESS PERIOD   43   TIME STEP   26
 
 SOLVING FOR HEAD 
                                                   Max.-Head-Change                         Max.-Flux-Residual
  Residual-Control   Outer-Iter.   Inner-Iter.     Column Row Layer    Maximum-Head-Change  Column Row Layer    Maximum-Flux-Residual          L2-NORM 
          0                 1           2             4    7     1      -0.4453137424E-01       4    7    1        -0.2338673718E+01      0.5001142731E+01
          0                 2           2             4    7     1       0.4331647217E-02       4    7    1         0.2338646652E+00      0.5001113546E+00
          0                 3           2             4    7     1      -0.2949694766E-03       4    7    1        -0.1637055699E-01      0.3500782651E-01
          0                 4           1             4    7     1       0.1173711011E-04       4    7    1         0.6695566171E-03      0.1431821661E-02

    ------------------------------------------------
       NWT REQUIRED            4 OUTER ITERATIONS 
       AND A TOTAL OF          7 INNER ITERATIONS.
    ------------------------------------------------

 NO OUTPUT CONTROL FOR STRESS PERIOD   43   TIME STEP   27
 
 SOLVING FOR HEAD 
                                                   Max.-Head-Change                         Max.-Flux-Residual
  Residual-Control   Outer-Iter.   Inner-Iter.     Column Row Layer    Maximum-Head-Change  Column Row Layer    Maximum-Flux-Residual          L2-NORM 
          0                 1           2             4    7     1      -0.4405579792E-01       4    7    1        -0.2313761517E+01      0.4952900961E+01
          0                 2           2             4    7     1       0.4285387115E-02       4    7    1         0.2313734789E+00      0.4952872241E+00
          0                 3           2             4    7     1      -0.2918193302E-03       4    7    1        -0.1619617356E-01      0.3467013660E-01
          0                 4           1             4    7     1       0.1161176275E-04       4    7    1         0.6624243251E-03      0.1418011712E-02

    ------------------------------------------------
       NWT REQUIRED            4 OUTER ITERATIONS 
       AND A TOTAL OF          7 INNER ITERATIONS.
    ------------------------------------------------

 NO OUTPUT CONTROL FOR STRESS PERIOD   43   TIME STEP   28
 
 SOLVING FOR HEAD 
                                                   Max.-Head-Change                         Max.-Flux-Residual
  Residual-Control   Outer-Iter.   Inner-Iter.     Column Row Layer    Maximum-Head-Change  Column Row Layer    Maximum-Flux-Residual          L2-NORM 
          0                 1           2             4    7     1      -0.4358449810E-01       4    7    1        -0.2289058941E+01      0.4905985145E+01
          0                 2           2             4    7     1       0.4239543017E-02       4    7    1         0.2289032563E+00      0.4905956911E+00
          0                 3           2             4    7     1      -0.2886975116E-03       4    7    1        -0.1602325756E-01      0.3434172957E-01
          0                 4           1             4    7     1       0.1148754295E-04       4    7    1         0.6553520407E-03      0.1404577861E-02

    ------------------------------------------------
       NWT REQUIRED            4 OUTER ITERATIONS 
       AND A TOTAL OF          7 INNER ITERATIONS.
    ------------------------------------------------

 NO OUTPUT CONTROL FOR STRESS PERIOD   43   TIME STEP   29
 
 SOLVING FOR HEAD 
                                                   Max.-Head-Change                         Max.-Flux-Residual
  Residual-Control   Outer-Iter.   Inner-Iter.     Column Row Layer    Maximum-Head-Change  Column Row Layer    Maximum-Flux-Residual          L2-NORM 
          0                 1           2             4    7     1      -0.4311741255E-01       4    7    1        -0.2264563517E+01      0.4860326661E+01
          0                 2           2             4    7     1       0.4194108867E-02       4    7    1         0.2264537499E+00      0.4860298907E+00
          0                 3           2             4    7     1      -0.2856036091E-03       4    7    1        -0.1585179170E-01      0.3402212597E-01
          0                 4           1             4    7     1       0.1136443321E-04       4    7    1         0.6483390730E-03      0.1391511096E-02

    ------------------------------------------------
       NWT REQUIRED            4 OUTER ITERATIONS 
       AND A TOTAL OF          7 INNER ITERATIONS.
    ------------------------------------------------

 NO OUTPUT CONTROL FOR STRESS PERIOD   43   TIME STEP   30



 STREAM LISTING     PERIOD     43   STEP       30

 LAYER ROW COL. STREAM  RCH.  FLOW INTO     FLOW TO   FLOW OUT OF   OVRLND.     DIRECT     STREAM       STREAM     STREAM     STREAM   STREAMBED  STREAMBED
                SEG.NO.  NO.  STRM. RCH.    AQUIFER    STRM. RCH.    RUNOFF     PRECIP       ET          HEAD       DEPTH      WIDTH   CONDCTNC.   GRADIENT

   1    1    1     1     1    1.9000E+01  2.1427E-01   1.8786E+01  0.000E+00  0.000E+00  0.000E+00  1.09413E+03  1.082E+00  1.166E+01  5.249E-02  1.361E+00
   1    2    2     1     2    1.8786E+01  3.3054E-01   1.8455E+01  0.000E+00  0.000E+00  0.000E+00  1.08914E+03  1.077E+00  1.158E+01  8.107E-02  1.359E+00
   1    3    3     1     3    1.8455E+01  2.8064E-01   1.8175E+01  0.000E+00  0.000E+00  0.000E+00  1.08349E+03  1.072E+00  1.149E+01  6.892E-02  1.357E+00
   1    3    4     1     4    1.8175E+01  2.5740E-01   1.7917E+01  0.000E+00  0.000E+00  0.000E+00  1.07848E+03  1.068E+00  1.140E+01  6.328E-02  1.356E+00
   1    4    5     2     1    1.5917E+01  3.0542E-01   1.5612E+01  0.000E+00  0.000E+00  0.000E+00  1.07285E+03  9.157E-01  1.200E+01  7.800E-02  1.305E+00
   1    5    6     2     2    1.5612E+01  2.3438E-01   1.5377E+01  0.000E+00  0.000E+00  0.000E+00  1.06742E+03  9.063E-01  1.200E+01  6.000E-02  1.302E+00
   1    6    6     2     3    1.5377E+01  2.3388E-01   1.5143E+01  0.000E+00  0.000E+00  0.000E+00  1.06269E+03  8.980E-01  1.200E+01  6.000E-02  1.299E+00
   1    7    6     2     4    1.5143E+01  2.3338E-01   1.4910E+01  0.000E+00  0.000E+00  0.000E+00  1.05797E+03  8.897E-01  1.200E+01  6.000E-02  1.297E+00
   1    8    6     2     5    1.4910E+01  2.3289E-01   1.4677E+01  0.000E+00  0.000E+00  0.000E+00  1.05324E+03  8.814E-01  1.200E+01  6.000E-02  1.294E+00
   1    3    5     3     1    2.0000E+00  2.8252E-01   1.7175E+00  0.000E+00  0.000E+00  0.000E+00  1.07555E+03  1.909E+00  9.636E+00  7.227E-02  1.955E+00
   1    3    6     3     2    1.7175E+00  2.4905E-01   1.4684E+00  0.000E+00  0.000E+00  0.000E+00  1.07264E+03  1.727E+00  8.909E+00  6.682E-02  1.864E+00
   1    3    7     3     3    1.4684E+00  1.9718E-01   1.2712E+00  0.000E+00  0.000E+00  0.000E+00  1.06987E+03  1.555E+00  8.218E+00  5.547E-02  1.777E+00
   1    4    8     3     4    1.2712E+00  2.2567E-01   1.0456E+00  0.000E+00  0.000E+00  0.000E+00  1.06682E+03  1.364E+00  7.455E+00  6.709E-02  1.682E+00
   1    5    8     3     5    1.0456E+00  1.5790E-01   8.8768E-01  0.000E+00  0.000E+00  0.000E+00  1.06362E+03  1.164E+00  6.655E+00  4.991E-02  1.582E+00
   1    6    8     3     6    8.8768E-01  5.5980E-02   8.3170E-01  0.000E+00  0.000E+00  0.000E+00  1.06158E+03  1.036E+00  6.145E+00  1.844E-02  1.518E+00
   1    5   10     4     1    1.0000E+01  9.0919E-02   9.9091E+00  0.000E+00  0.000E+00  0.000E+00  1.07836E+03  6.368E-01  1.000E+01  2.500E-02  1.212E+00
   1    5    9     4     2    9.9091E+00  1.8158E-01   9.7275E+00  0.000E+00  0.000E+00  0.000E+00  1.07154E+03  6.315E-01  1.000E+01  5.000E-02  1.211E+00
   1    6    8     4     3    9.7275E+00  1.2689E-01   9.6006E+00  0.000E+00  0.000E+00  0.000E+00  1.06381E+03  6.256E-01  1.000E+01  3.500E-02  1.209E+00
   1    6    8     5     1    1.0432E+01  2.2686E-01   1.0205E+01  0.000E+00  0.000E+00  0.000E+00  1.05868E+03  6.790E-01  1.542E+01  6.166E-02  1.226E+00
   1    7    7     5     2    1.0205E+01  2.7894E-01   9.9265E+00  0.000E+00  0.000E+00  0.000E+00  1.05417E+03  6.732E-01  1.519E+01  7.594E-02  1.224E+00
   1    8    7     5     3    9.9265E+00  1.9221E-01   9.7343E+00  0.000E+00  0.000E+00  0.000E+00  1.04992E+03  6.676E-01  1.497E+01  5.241E-02  1.223E+00
   1    8    6     5     4    9.7343E+00  1.3577E-01   9.5985E+00  0.000E+00  0.000E+00  0.000E+00  1.04691E+03  6.637E-01  1.482E+01  3.706E-02  1.221E+00
   1    9    6     6     1    2.4276E+01  2.5176E-01   2.4024E+01  0.000E+00  0.000E+00  0.000E+00  1.04392E+03  1.196E+00  1.200E+01  6.000E-02  1.399E+00
   1   10    7     6     2    2.4024E+01  2.5131E-01   2.3773E+01  0.000E+00  0.000E+00  0.000E+00  1.03937E+03  1.188E+00  1.200E+01  6.000E-02  1.396E+00
   1   11    7     6     3    2.3773E+01  2.5086E-01   2.3522E+01  0.000E+00  0.000E+00  0.000E+00  1.03482E+03  1.181E+00  1.200E+01  6.000E-02  1.394E+00
   1   12    7     6     4    2.3522E+01  2.5041E-01   2.3271E+01  0.000E+00  0.000E+00  0.000E+00  1.03026E+03  1.173E+00  1.200E+01  6.000E-02  1.391E+00
   1   13    7     6     5    2.3271E+01  1.1390E-02   2.3260E+01  0.000E+00  0.000E+00  0.000E+00  1.02708E+03  1.169E+00  1.200E+01  2.400E-02  1.582E-01
   1   14    9     7     1    1.5000E+02  1.3724E+00   1.4863E+02  0.000E+00  0.000E+00  0.000E+00  1.03987E+03  2.288E+00  5.529E+01  5.593E-01  8.179E-01
   1   13    8     7     2    1.4863E+02  1.9765E+00   1.4665E+02  0.000E+00  0.000E+00  0.000E+00  1.03478E+03  2.279E+00  5.525E+01  6.147E-01  1.072E+00
   1   13    7     7     3    1.4665E+02  1.7221E+00   1.4493E+02  0.000E+00  0.000E+00  0.000E+00  1.02969E+03  2.269E+00  5.521E+01  5.584E-01  1.028E+00
   1   13    6     8     1    1.6819E+02  1.1541E+00   1.6703E+02  0.000E+00  0.000E+00  0.000E+00  1.02481E+03  2.937E+00  4.258E+01  4.339E-01  8.866E-01
   1   13    5     8     2    1.6703E+02  3.8778E-01   1.6665E+02  0.000E+00  0.000E+00  0.000E+00  1.01856E+03  2.932E+00  4.251E+01  4.332E-01  2.984E-01
   1   13    4     8     3    1.6665E+02 -1.7324E+00   1.6838E+02  0.000E+00  0.000E+00  0.000E+00  1.01231E+03  2.936E+00  4.257E+01  4.338E+00 -1.331E-01
   1   13    3     8     4    1.6838E+02 -3.2995E+00   1.7168E+02  0.000E+00  0.000E+00  0.000E+00  1.00608E+03  2.952E+00  4.281E+01  4.362E+00 -2.521E-01
   1   13    2     8     5    1.7168E+02 -2.4890E+00   1.7417E+02  0.000E+00  0.000E+00  0.000E+00  9.99846E+02  2.971E+00  4.308E+01  4.390E+00 -1.890E-01
   1   13    1     8     6    1.7417E+02 -1.9593E+00   1.7613E+02  0.000E+00  0.000E+00  0.000E+00  9.94860E+02  2.985E+00  4.329E+01  2.647E+00 -2.468E-01





UNSATURATED ZONE PACKAGE VOLUMETRIC BUDGET FOR  TIME STEP    30 STRESS PERIOD   43
  ------------------------------------------------------------------------------



     CUMULATIVE VOLUMES      L**3       RATES FOR THIS TIME STEP      L**3/T
     ------------------                 ------------------------

           IN:                                      IN:
           ---                                      ---
        INFILTRATION =  1609735125.2399          INFILTRATION =          23.3175

          OUT:                                     OUT:
          ----                                     ----
              UZF ET =  1393606975.1488                UZF ET =          23.3175
        UZF RECHARGE =   216053968.0352          UZF RECHARGE =       0.0000E+00

            IN - OUT =       74182.0558              IN - OUT =       0.0000E+00

          STORAGE:                                 STORAGE:
          --------                                 --------
      STORAGE CHANGE =       74160.8959        STORAGE CHANGE =       8.4197E-15

 PERCENT DISCREPANCY IS DIFFERENCE BETWEEN IN-OUT MINUS CHANGE IN STORAGE
 DIVIDED BY THE AVERAGE OF IN AND OUT TIMES 100

 PERCENT DISCREPANCY =           0.00     PERCENT DISCREPANCY =           0.00






1
  VOLUMETRIC BUDGET FOR AGRICULTURAL FIELDS AT  END OF TIME STEP   30, STRESS PERIOD  43
  ------------------------------------------------------------------------------

     CUMULATIVE VOLUMES      L**3       RATES FOR THIS TIME STEP      L**3/T
     ------------------                 ------------------------

           IN:                                      IN:
           ---                                      ---
               AG WELLS  =  1516046464.0000                 AG WELLS  =          22.4700
      DIVERSION SEGMENTS =           0.0000        DIVERSION SEGMENTS =           0.0000
           GW IRRIGATION =           0.0000             GW IRRIGATION =           0.0000
           SW IRRIGATION =           0.0000             SW IRRIGATION =           0.0000
        SYSTEM LOSSES GW =           0.0000          SYSTEM LOSSES GW =           0.0000
        SYSTEM LOSSES SW =           0.0000          SYSTEM LOSSES SW =           0.0000

                TOTAL IN =  1516046464.0000                  TOTAL IN =          22.4700

          OUT:                                     OUT:
          ----                                     ----
               AG WELLS  =           0.0000                 AG WELLS  =           0.0000
      DIVERSION SEGMENTS =           0.0000        DIVERSION SEGMENTS =           0.0000
           GW IRRIGATION =  1516046464.0000             GW IRRIGATION =          22.4700
           SW IRRIGATION =           0.0000             SW IRRIGATION =           0.0000
        SYSTEM LOSSES GW =           0.0000          SYSTEM LOSSES GW =           0.0000
        SYSTEM LOSSES SW =           0.0000          SYSTEM LOSSES SW =           0.0000

               TOTAL OUT =  1516046464.0000                 TOTAL OUT =          22.4700

                IN - OUT =           0.0000                  IN - OUT =           0.0000

     PERCENT DISCREPANCY =           0.00         PERCENT DISCREPANCY =           0.00



1
  VOLUMETRIC BUDGET FOR ENTIRE MODEL AT END OF TIME STEP   30, STRESS PERIOD  43
  ------------------------------------------------------------------------------

     CUMULATIVE VOLUMES      L**3       RATES FOR THIS TIME STEP      L**3/T
     ------------------                 ------------------------

           IN:                                      IN:
           ---                                      ---
             STORAGE     =  1959541376.0000               STORAGE     =          19.6424
       CONSTANT HEAD     =           0.0000         CONSTANT HEAD     =           0.0000
     HEAD DEP BOUNDS     =    31632404.0000       HEAD DEP BOUNDS     =           0.2883
      STREAM LEAKAGE     =  1355366784.0000        STREAM LEAKAGE     =          12.3529
        UZF RECHARGE     =   216053968.0000          UZF RECHARGE     =           0.0000
               GW ET     =           0.0000                 GW ET     =           0.0000
     SURFACE LEAKAGE     =           0.0000       SURFACE LEAKAGE     =           0.0000
           AG WELLS      =           0.0000             AG WELLS      =           0.0000

                TOTAL IN =  3562594560.0000                  TOTAL IN =          32.2836

          OUT:                                     OUT:
          ----                                     ----
             STORAGE     =   876018880.0000               STORAGE     =       4.4613E-02
       CONSTANT HEAD     =           0.0000         CONSTANT HEAD     =           0.0000
     HEAD DEP BOUNDS     =    32271366.0000       HEAD DEP BOUNDS     =           0.2888
      STREAM LEAKAGE     =  1120713984.0000        STREAM LEAKAGE     =           9.4802
        UZF RECHARGE     =           0.0000          UZF RECHARGE     =           0.0000
               GW ET     =    17516984.0000                 GW ET     =           0.0000
     SURFACE LEAKAGE     =           0.0000       SURFACE LEAKAGE     =           0.0000
           AG WELLS      =  1516046464.0000             AG WELLS      =          22.4700

               TOTAL OUT =  3562567680.0000                 TOTAL OUT =          32.2836

                IN - OUT =       26880.0000                  IN - OUT =      -6.4850E-05

     PERCENT DISCREPANCY =           0.00         PERCENT DISCREPANCY =          -0.00






         TIME SUMMARY AT END OF TIME STEP   30 IN STRESS PERIOD   43
                    SECONDS     MINUTES      HOURS       DAYS        YEARS
                    -----------------------------------------------------------
   TIME STEP LENGTH  87667.      1461.1      24.352      1.0147     2.77799E-03
 STRESS PERIOD TIME 2.63000E+06  43833.      730.56      30.440     8.33397E-02
         TOTAL TIME 1.10545E+08 1.84242E+06  30707.      1279.5      3.5030    
1
1
                            STRESS PERIOD NO.   44, LENGTH =   2630000.    
                            -----------------------------------------------

                              NUMBER OF TIME STEPS =    30

                               MULTIPLIER FOR DELT =     1.000

                            INITIAL TIME STEP SIZE =   87666.66    

 REUSING NON-PARAMETER GHB CELLS FROM LAST STRESS PERIOD

      2 GHB CELLS

 REUSING STREAM SEGMENT DATA FROM LAST STRESS PERIOD



            AREAL INFILTRATION RATE
 READING ON UNIT   19 WITH FORMAT: (FREE)              

            1           2           3           4           5           6           7           8           9          10
 ........................................................................................................................
   1   1.0000E-10  2.0000E-10   0.000       0.000       0.000       0.000       0.000       0.000       0.000       0.000    
   2   2.0000E-10  1.0000E-10  2.0000E-10   0.000       0.000      8.0000E-10  8.0000E-10  5.0000E-10   0.000       0.000    
   3    0.000      5.0000E-10  1.0000E-10  1.0000E-10  8.0000E-10  8.0000E-10  5.0000E-10  5.0000E-10   0.000       0.000    
   4   8.0000E-10  5.0000E-10  1.0000E-10  1.0000E-10  1.0000E-10  1.0000E-10  1.0000E-10  1.0000E-10  2.0000E-10   0.000    
   5   8.0000E-10  5.0000E-10  1.0000E-10  1.0000E-10  1.0000E-10  1.0000E-10  1.0000E-10  1.0000E-10  1.0000E-10  1.0000E-10
   6   8.0000E-10  5.0000E-10  5.0000E-10  2.0000E-10  2.0000E-10  1.0000E-10  1.0000E-10  1.0000E-10  1.0000E-10  5.0000E-10
   7   8.0000E-10  5.0000E-10  5.0000E-10  2.0000E-10  2.0000E-10  1.0000E-10  1.0000E-10  2.0000E-10  2.0000E-10   0.000    
   8    0.000      5.0000E-10  5.0000E-10  2.0000E-10  2.0000E-10  1.0000E-10  1.0000E-10  2.0000E-10  5.0000E-10   0.000    
   9    0.000      5.0000E-10  5.0000E-10  2.0000E-10  2.0000E-10  1.0000E-10  1.0000E-10  2.0000E-10  5.0000E-10   0.000    
  10    0.000      5.0000E-10  5.0000E-10  2.0000E-10  2.0000E-10  1.0000E-10  1.0000E-10  2.0000E-10  5.0000E-10  8.0000E-10
  11    0.000      1.0000E-10  1.0000E-10  1.0000E-10  1.0000E-10  1.0000E-10  1.0000E-10  2.0000E-10  5.0000E-10   0.000    
  12   1.0000E-10  1.0000E-10  1.0000E-10  1.0000E-10  1.0000E-10  1.0000E-10  1.0000E-10  1.0000E-10  2.0000E-10   0.000    
  13   1.0000E-10  1.0000E-10  2.0000E-10  2.0000E-10  2.0000E-10  2.0000E-10  2.0000E-10  1.0000E-10  1.0000E-10   0.000    
  14    0.000      2.0000E-10  5.0000E-10  5.0000E-10  5.0000E-10  5.0000E-10  5.0000E-10  2.0000E-10  1.0000E-10   0.000    
  15    0.000       0.000      8.0000E-10  8.0000E-10  8.0000E-10  8.0000E-10   0.000       0.000       0.000       0.000    

                  ET RATE =  4.000000E-07

 USING ET EXTINCTION DEPTH FROM PREVIOUS STRESS PERIOD. CURRENT PERIOD IS:      44

 USING EXTINCTION WATER CONTENT FROM PREVIOUS STRESS PERIOD. CURRENT PERIOD IS:      44

 USING AIR ENTRY PRESSURE FROM PREVIOUS STRESS PERIOD. CURRENT PERIOD IS:      44

 USING ROOT PRESSURE HEAD FROM PREVIOUS STRESS PERIOD. CURRENT PERIOD IS:      44

 USING ROOT ACTIVITY FROM PREVIOUS STRESS PERIOD. CURRENT PERIOD IS:      44

 PROCESSING AG STRESS PERIOD DATA

 READING AG STRESS PERIOD DATA

 READING IRRIGATION WELL

 END PROCESSING AG STRESS PERIOD DATA OPTIONS
 
 SOLVING FOR HEAD 
                                                   Max.-Head-Change                         Max.-Flux-Residual
  Residual-Control   Outer-Iter.   Inner-Iter.     Column Row Layer    Maximum-Head-Change  Column Row Layer    Maximum-Flux-Residual          L2-NORM 
          0                 1           2             4    7     1      -0.1623719022E+00       4    7    1        -0.8490293672E+01      0.1987108140E+02
          0                 2           2             6    7     1       0.1201593817E-02       6    7    1         0.6603341814E-01      0.1758696152E+00
          0                 3           2             5    6     1      -0.1203294137E-01       4    7    1        -0.6484262531E+00      0.1580820566E+01
          0                 4           2             4    7     1      -0.9016326951E-02       5    7    1        -0.4987390914E+00      0.1188569477E+01
          0                 5           2             4    7     1      -0.7411632095E-02       5    7    1        -0.4097102429E+00      0.9811395571E+00
          0                 6           2             4    7     1      -0.6113967671E-02       5    7    1        -0.3379914123E+00      0.8089893343E+00
          0                 7           2             4    7     1      -0.5069990695E-02       5    7    1        -0.2802709734E+00      0.6709572791E+00
          0                 8           2             4    7     1      -0.4220999515E-02       5    7    1        -0.2333346646E+00      0.5586338591E+00
          0                 9           2             4    7     1      -0.3525297315E-02       5    7    1        -0.1948735545E+00      0.4665840881E+00
          0                10           2             4    7     1      -0.2951779880E-02       5    7    1        -0.1631679443E+00      0.3906925513E+00
                                                   Max.-Head-Change                         Max.-Flux-Residual
  Residual-Control   Outer-Iter.   Inner-Iter.     Column Row Layer    Maximum-Head-Change  Column Row Layer    Maximum-Flux-Residual          L2-NORM 
          0                11           2             4    7     1      -0.2476654114E-02       5    7    1        -0.1369021684E+00      0.3278156737E+00
          0                12           2             4    7     1      -0.2081532439E-02       5    7    1        -0.1150595111E+00      0.2755230679E+00
          0                13           2             4    7     1      -0.1751868502E-02       5    7    1        -0.9683569229E-01      0.2318911938E+00
          0                14           2             4    7     1      -0.1476122262E-02       5    7    1        -0.8159265695E-01      0.1953940525E+00
          0                15           2             4    7     1      -0.1244981668E-02       5    7    1        -0.6881555842E-01      0.1647998228E+00
          0                16           2             4    7     1      -0.1050858612E-02       5    7    1        -0.5808487367E-01      0.1391045740E+00
          0                17           2             4    7     1      -0.8875811108E-03       5    7    1        -0.4905937296E-01      0.1174917838E+00
          0                18           2             4    7     1      -0.7500947301E-03       5    7    1        -0.4145961861E-01      0.9929267912E-01
          0                19           2             4    7     1      -0.6342154998E-03       5    7    1        -0.3505430360E-01      0.8395355094E-01
          0                20           2             4    7     1      -0.5364325830E-03       5    7    1        -0.2964934126E-01      0.7100965804E-01
                                                   Max.-Head-Change                         Max.-Flux-Residual
  Residual-Control   Outer-Iter.   Inner-Iter.     Column Row Layer    Maximum-Head-Change  Column Row Layer    Maximum-Flux-Residual          L2-NORM 
          0                21           2             4    7     1      -0.4538990804E-03       5    7    1        -0.2508733809E-01      0.6008442636E-01
          0                22           2             4    7     1      -0.3841384930E-03       5    7    1        -0.2123140102E-01      0.5084978330E-01
          0                23           2             4    7     1      -0.3251950832E-03       5    7    1        -0.1797339991E-01      0.4304720743E-01
          0                24           2             4    7     1      -0.2753510729E-03       5    7    1        -0.1521838532E-01      0.3644907954E-01
          0                25           2             4    7     1      -0.2331901243E-03       5    7    1        -0.1288805834E-01      0.3086801586E-01
          0                26           2             4    7     1      -0.1975082808E-03       5    7    1        -0.1091586718E-01      0.2614460341E-01
          0                27           2             4    7     1      -0.1673003400E-03       5    7    1        -0.9246244582E-02      0.2214580748E-01
          0                28           2             4    7     1      -0.1417431212E-03       5    7    1        -0.7833683982E-02      0.1876272091E-01
          0                29           2             4    7     1      -0.1200751216E-03       5    7    1        -0.6636099689E-02      0.1589435370E-01
          0                30           1             4    7     1      -0.1017397891E-03       5    7    1        -0.5622716511E-02      0.1346727981E-01
          0                31           1             4    7     1      -0.8622400725E-04       5    7    1        -0.4765168192E-02      0.1141343494E-01

    ------------------------------------------------
       NWT REQUIRED           31 OUTER ITERATIONS 
       AND A TOTAL OF         60 INNER ITERATIONS.
    ------------------------------------------------

 NO OUTPUT CONTROL FOR STRESS PERIOD   44   TIME STEP    1
 
 SOLVING FOR HEAD 
                                                   Max.-Head-Change                         Max.-Flux-Residual
  Residual-Control   Outer-Iter.   Inner-Iter.     Column Row Layer    Maximum-Head-Change  Column Row Layer    Maximum-Flux-Residual          L2-NORM 
          0                 1           2             4    7     1      -0.1608336251E+00       4    7    1        -0.8414823603E+01      0.1937282695E+02
          0                 2           2             6    7     1       0.1487646151E-02       6    7    1         0.8201735565E-01      0.2262667603E+00
          0                 3           2             5    7     1      -0.1222076569E-01       4    7    1        -0.6479134293E+00      0.1575800838E+01
          0                 4           2             4    7     1      -0.9016766948E-02       4    7    1        -0.4991638328E+00      0.1141994440E+01
          0                 5           2             4    7     1      -0.7411634654E-02       4    7    1        -0.4100486168E+00      0.9495873652E+00
          0                 6           2             4    7     1      -0.6113984421E-02       4    7    1        -0.3382744068E+00      0.7823915807E+00
          0                 7           2             4    7     1      -0.5070003974E-02       4    7    1        -0.2805038239E+00      0.6490781592E+00
          0                 8           2             4    7     1      -0.4221010584E-02       4    7    1        -0.2335279014E+00      0.5404770058E+00
          0                 9           2             4    7     1      -0.3525306552E-02       4    7    1        -0.1950344601E+00      0.4514651185E+00
          0                10           2             4    7     1      -0.2951787611E-02       4    7    1        -0.1633023490E+00      0.3780636624E+00
                                                   Max.-Head-Change                         Max.-Flux-Residual
  Residual-Control   Outer-Iter.   Inner-Iter.     Column Row Layer    Maximum-Head-Change  Column Row Layer    Maximum-Flux-Residual          L2-NORM 
          0                11           2             4    7     1      -0.2476660597E-02       4    7    1        -0.1370147159E+00      0.3172405308E+00
          0                12           2             4    7     1      -0.2081537887E-02       4    7    1        -0.1151539452E+00      0.2666498938E+00
          0                13           2             4    7     1      -0.1751873085E-02       4    7    1        -0.9691505974E-01      0.2244337050E+00
          0                14           2             4    7     1      -0.1476126123E-02       4    7    1        -0.8165945176E-01      0.1891179101E+00
          0                15           2             4    7     1      -0.1244984924E-02       4    7    1        -0.6887183607E-01      0.1595118912E+00
          0                16           2             4    7     1      -0.1050861360E-02       4    7    1        -0.5813233506E-01      0.1346450312E+00
          0                17           2             4    7     1      -0.8875834313E-03       4    7    1        -0.4909942992E-01      0.1137279762E+00
          0                18           2             4    7     1      -0.7500966906E-03       4    7    1        -0.4149344782E-01      0.9611404050E-01
          0                19           2             4    7     1      -0.6342171574E-03       4    7    1        -0.3508288914E-01      0.8126761599E-01
          0                20           2             4    7     1      -0.5364339851E-03       4    7    1        -0.2967350759E-01      0.6873895967E-01
                                                   Max.-Head-Change                         Max.-Flux-Residual
  Residual-Control   Outer-Iter.   Inner-Iter.     Column Row Layer    Maximum-Head-Change  Column Row Layer    Maximum-Flux-Residual          L2-NORM 
          0                21           2             4    7     1      -0.4539002668E-03       4    7    1        -0.2510777552E-01      0.5816410130E-01
          0                22           2             4    7     1      -0.3841394968E-03       4    7    1        -0.2124869162E-01      0.4922513999E-01
          0                23           2             4    7     1      -0.3251959328E-03       4    7    1        -0.1798803068E-01      0.4167248333E-01
          0                24           2             4    7     1      -0.2753517926E-03       4    7    1        -0.1523076928E-01      0.3528547025E-01
          0                25           2             4    7     1      -0.2331907333E-03       4    7    1        -0.1289854246E-01      0.2988291682E-01
          0                26           2             4    7     1      -0.1975087969E-03       4    7    1        -0.1092474459E-01      0.2531047436E-01
          0                27           2             4    7     1      -0.1673007770E-03       4    7    1        -0.9253762316E-02      0.2143943292E-01
          0                28           2             4    7     1      -0.1417434917E-03       4    7    1        -0.7840050847E-02      0.1816448643E-01
          0                29           2             4    7     1      -0.1200754358E-03       4    7    1        -0.6641493103E-02      0.1538758564E-01
          0                30           1             4    7     1      -0.1017400547E-03       4    7    1        -0.5627284529E-02      0.1303806589E-01
          0                31           1             4    7     1      -0.8622423238E-04       4    7    1        -0.4769047253E-02      0.1104981796E-01

    ------------------------------------------------
       NWT REQUIRED           31 OUTER ITERATIONS 
       AND A TOTAL OF         60 INNER ITERATIONS.
    ------------------------------------------------

 NO OUTPUT CONTROL FOR STRESS PERIOD   44   TIME STEP    2
 
 SOLVING FOR HEAD 
                                                   Max.-Head-Change                         Max.-Flux-Residual
  Residual-Control   Outer-Iter.   Inner-Iter.     Column Row Layer    Maximum-Head-Change  Column Row Layer    Maximum-Flux-Residual          L2-NORM 
          0                 1           2             4    7     1      -0.1592178379E+00       4    7    1        -0.8334914695E+01      0.1890402164E+02
          0                 2           2             6    7     1       0.1760823735E-02       6    7    1         0.9729665958E-01      0.2830703797E+00
          0                 3           2             5    7     1      -0.1218676142E-01       4    7    1        -0.6473800939E+00      0.1570678381E+01
          0                 4           2             4    7     1      -0.9017230254E-02       4    7    1        -0.4991796846E+00      0.1142487008E+01
          0                 5           2             4    7     1      -0.7411637557E-02       4    7    1        -0.4100479047E+00      0.9495387061E+00
          0                 6           2             4    7     1      -0.6114002331E-02       4    7    1        -0.3382739020E+00      0.7823964104E+00
          0                 7           2             4    7     1      -0.5070018187E-02       4    7    1        -0.2805034524E+00      0.6490776729E+00
          0                 8           2             4    7     1      -0.4221022444E-02       4    7    1        -0.2335275865E+00      0.5404770507E+00
          0                 9           2             4    7     1      -0.3525316456E-02       4    7    1        -0.1950341986E+00      0.4514651110E+00
          0                10           2             4    7     1      -0.2951795904E-02       4    7    1        -0.1633021305E+00      0.3780636606E+00
                                                   Max.-Head-Change                         Max.-Flux-Residual
  Residual-Control   Outer-Iter.   Inner-Iter.     Column Row Layer    Maximum-Head-Change  Column Row Layer    Maximum-Flux-Residual          L2-NORM 
          0                11           2             4    7     1      -0.2476667555E-02       4    7    1        -0.1370145329E+00      0.3172405289E+00
          0                12           2             4    7     1      -0.2081543735E-02       4    7    1        -0.1151537917E+00      0.2666498923E+00
          0                13           2             4    7     1      -0.1751878006E-02       4    7    1        -0.9691493070E-01      0.2244337037E+00
          0                14           2             4    7     1      -0.1476130270E-02       4    7    1        -0.8165934317E-01      0.1891179091E+00
          0                15           2             4    7     1      -0.1244988422E-02       4    7    1        -0.6887174460E-01      0.1595118903E+00
          0                16           2             4    7     1      -0.1050864313E-02       4    7    1        -0.5813225790E-01      0.1346450304E+00
          0                17           2             4    7     1      -0.8875859248E-03       4    7    1        -0.4909936478E-01      0.1137279755E+00
          0                18           2             4    7     1      -0.7500987976E-03       4    7    1        -0.4149339282E-01      0.9611403994E-01
          0                19           2             4    7     1      -0.6342189393E-03       4    7    1        -0.3508284268E-01      0.8126761561E-01
          0                20           2             4    7     1      -0.5364354927E-03       4    7    1        -0.2967346832E-01      0.6873895931E-01
                                                   Max.-Head-Change                         Max.-Flux-Residual
  Residual-Control   Outer-Iter.   Inner-Iter.     Column Row Layer    Maximum-Head-Change  Column Row Layer    Maximum-Flux-Residual          L2-NORM 
          0                21           2             4    7     1      -0.4539015419E-03       4    7    1        -0.2510774228E-01      0.5816410095E-01
          0                22           2             4    7     1      -0.3841405761E-03       4    7    1        -0.2124866351E-01      0.4922513972E-01
          0                23           2             4    7     1      -0.3251968465E-03       4    7    1        -0.1798800689E-01      0.4167248309E-01
          0                24           2             4    7     1      -0.2753525659E-03       4    7    1        -0.1523074913E-01      0.3528547005E-01
          0                25           2             4    7     1      -0.2331913889E-03       4    7    1        -0.1289852543E-01      0.2988291665E-01
          0                26           2             4    7     1      -0.1975093512E-03       4    7    1        -0.1092473014E-01      0.2531047439E-01
          0                27           2             4    7     1      -0.1673012476E-03       4    7    1        -0.9253750110E-02      0.2143943295E-01
          0                28           2             4    7     1      -0.1417438895E-03       4    7    1        -0.7840040483E-02      0.1816448630E-01
          0                29           2             4    7     1      -0.1200757732E-03       4    7    1        -0.6641484336E-02      0.1538758555E-01
          0                30           1             4    7     1      -0.1017403405E-03       4    7    1        -0.5627277097E-02      0.1303806580E-01
          0                31           1             4    7     1      -0.8622447468E-04       4    7    1        -0.4769040961E-02      0.1104981788E-01

    ------------------------------------------------
       NWT REQUIRED           31 OUTER ITERATIONS 
       AND A TOTAL OF         60 INNER ITERATIONS.
    ------------------------------------------------

 NO OUTPUT CONTROL FOR STRESS PERIOD   44   TIME STEP    3
 
 SOLVING FOR HEAD 
                                                   Max.-Head-Change                         Max.-Flux-Residual
  Residual-Control   Outer-Iter.   Inner-Iter.     Column Row Layer    Maximum-Head-Change  Column Row Layer    Maximum-Flux-Residual          L2-NORM 
          0                 1           2             4    7     1      -0.1575316073E+00       4    7    1        -0.8250954756E+01      0.1846250328E+02
          0                 2           2             5    8     1      -0.2181501345E-02       5    8    1        -0.1220848636E+00      0.3412458678E+00
          0                 3           2             5    7     1      -0.1215325399E-01       4    7    1        -0.6468177614E+00      0.1565743967E+01
          0                 4           2             4    7     1      -0.9017714287E-02       4    7    1        -0.4991968668E+00      0.1142961197E+01
          0                 5           2             4    7     1      -0.7411641031E-02       4    7    1        -0.4100471362E+00      0.9494919209E+00
          0                 6           2             4    7     1      -0.6114021391E-02       4    7    1        -0.3382734099E+00      0.7824010543E+00
          0                 7           2             4    7     1      -0.5070033325E-02       4    7    1        -0.2805030877E+00      0.6490772071E+00
          0                 8           2             4    7     1      -0.4221035074E-02       4    7    1        -0.2335272775E+00      0.5404770951E+00
          0                 9           2             4    7     1      -0.3525327004E-02       4    7    1        -0.1950339421E+00      0.4514651048E+00
          0                10           2             4    7     1      -0.2951804736E-02       4    7    1        -0.1633019161E+00      0.3780636598E+00
                                                   Max.-Head-Change                         Max.-Flux-Residual
  Residual-Control   Outer-Iter.   Inner-Iter.     Column Row Layer    Maximum-Head-Change  Column Row Layer    Maximum-Flux-Residual          L2-NORM 
          0                11           2             4    7     1      -0.2476674965E-02       4    7    1        -0.1370143534E+00      0.3172405278E+00
          0                12           2             4    7     1      -0.2081549962E-02       4    7    1        -0.1151536411E+00      0.2666498914E+00
          0                13           2             4    7     1      -0.1751883248E-02       4    7    1        -0.9691480413E-01      0.2244337029E+00
          0                14           2             4    7     1      -0.1476134686E-02       4    7    1        -0.8165923665E-01      0.1891179084E+00
          0                15           2             4    7     1      -0.1244992147E-02       4    7    1        -0.6887165484E-01      0.1595118898E+00
          0                16           2             4    7     1      -0.1050867457E-02       4    7    1        -0.5813218221E-01      0.1346450300E+00
          0                17           2             4    7     1      -0.8875885804E-03       4    7    1        -0.4909930090E-01      0.1137279752E+00
          0                18           2             4    7     1      -0.7501010423E-03       4    7    1        -0.4149333887E-01      0.9611403964E-01
          0                19           2             4    7     1      -0.6342208371E-03       4    7    1        -0.3508279708E-01      0.8126761527E-01
          0                20           2             4    7     1      -0.5364370973E-03       4    7    1        -0.2967342975E-01      0.6873895903E-01
                                                   Max.-Head-Change                         Max.-Flux-Residual
  Residual-Control   Outer-Iter.   Inner-Iter.     Column Row Layer    Maximum-Head-Change  Column Row Layer    Maximum-Flux-Residual          L2-NORM 
          0                21           2             4    7     1      -0.4539028999E-03       4    7    1        -0.2510770968E-01      0.5816410076E-01
          0                22           2             4    7     1      -0.3841417252E-03       4    7    1        -0.2124863593E-01      0.4922513956E-01
          0                23           2             4    7     1      -0.3251978194E-03       4    7    1        -0.1798798356E-01      0.4167248296E-01
          0                24           2             4    7     1      -0.2753533901E-03       4    7    1        -0.1523072939E-01      0.3528546992E-01
          0                25           2             4    7     1      -0.2331920860E-03       4    7    1        -0.1289850869E-01      0.2988291655E-01
          0                26           2             4    7     1      -0.1975099428E-03       4    7    1        -0.1092471600E-01      0.2531047413E-01
          0                27           2             4    7     1      -0.1673017477E-03       4    7    1        -0.9253738098E-02      0.2143943272E-01
          0                28           2             4    7     1      -0.1417443138E-03       4    7    1        -0.7840030330E-02      0.1816448626E-01
          0                29           2             4    7     1      -0.1200761324E-03       4    7    1        -0.6641475734E-02      0.1538758549E-01
          0                30           1             4    7     1      -0.1017406451E-03       4    7    1        -0.5627269820E-02      0.1303806576E-01
          0                31           1             4    7     1      -0.8622473249E-04       4    7    1        -0.4769034782E-02      0.1104981783E-01

    ------------------------------------------------
       NWT REQUIRED           31 OUTER ITERATIONS 
       AND A TOTAL OF         60 INNER ITERATIONS.
    ------------------------------------------------

 NO OUTPUT CONTROL FOR STRESS PERIOD   44   TIME STEP    4
 
 SOLVING FOR HEAD 
                                                   Max.-Head-Change                         Max.-Flux-Residual
  Residual-Control   Outer-Iter.   Inner-Iter.     Column Row Layer    Maximum-Head-Change  Column Row Layer    Maximum-Flux-Residual          L2-NORM 
          0                 1           2             4    7     1      -0.1557823295E+00       4    7    1        -0.8163350597E+01      0.1804629301E+02
          0                 2           2             5    8     1      -0.2703874437E-02       5    8    1        -0.1507821725E+00      0.3988117755E+00
          0                 3           2             5    7     1      -0.1212027471E-01       4    7    1        -0.6462292872E+00      0.1560987574E+01
          0                 4           2             4    7     1      -0.9018216907E-02       4    7    1        -0.4992152602E+00      0.1143417918E+01
          0                 5           2             4    7     1      -0.7411645048E-02       4    7    1        -0.4100463160E+00      0.9494469145E+00
          0                 6           2             4    7     1      -0.6114041501E-02       4    7    1        -0.3382729299E+00      0.7824055218E+00
          0                 7           2             4    7     1      -0.5070049311E-02       4    7    1        -0.2805027296E+00      0.6490767608E+00
          0                 8           2             4    7     1      -0.4221048412E-02       4    7    1        -0.2335269743E+00      0.5404771390E+00
          0                 9           2             4    7     1      -0.3525338142E-02       4    7    1        -0.1950336903E+00      0.4514650999E+00
          0                10           2             4    7     1      -0.2951814061E-02       4    7    1        -0.1633017057E+00      0.3780636599E+00
                                                   Max.-Head-Change                         Max.-Flux-Residual
  Residual-Control   Outer-Iter.   Inner-Iter.     Column Row Layer    Maximum-Head-Change  Column Row Layer    Maximum-Flux-Residual          L2-NORM 
          0                11           2             4    7     1      -0.2476682790E-02       4    7    1        -0.1370141772E+00      0.3172405274E+00
          0                12           2             4    7     1      -0.2081556539E-02       4    7    1        -0.1151534932E+00      0.2666498911E+00
          0                13           2             4    7     1      -0.1751888783E-02       4    7    1        -0.9691467990E-01      0.2244337027E+00
          0                14           2             4    7     1      -0.1476139350E-02       4    7    1        -0.8165913208E-01      0.1891179082E+00
          0                15           2             4    7     1      -0.1244996080E-02       4    7    1        -0.6887156674E-01      0.1595118897E+00
          0                16           2             4    7     1      -0.1050870777E-02       4    7    1        -0.5813210793E-01      0.1346450299E+00
          0                17           2             4    7     1      -0.8875913851E-03       4    7    1        -0.4909923821E-01      0.1137279751E+00
          0                18           2             4    7     1      -0.7501034115E-03       4    7    1        -0.4149328590E-01      0.9611403956E-01
          0                19           2             4    7     1      -0.6342228411E-03       4    7    1        -0.3508275236E-01      0.8126761522E-01
          0                20           2             4    7     1      -0.5364387922E-03       4    7    1        -0.2967339193E-01      0.6873895899E-01
                                                   Max.-Head-Change                         Max.-Flux-Residual
  Residual-Control   Outer-Iter.   Inner-Iter.     Column Row Layer    Maximum-Head-Change  Column Row Layer    Maximum-Flux-Residual          L2-NORM 
          0                21           2             4    7     1      -0.4539043339E-03       4    7    1        -0.2510767770E-01      0.5816410074E-01
          0                22           2             4    7     1      -0.3841429389E-03       4    7    1        -0.2124860886E-01      0.4922513953E-01
          0                23           2             4    7     1      -0.3251988471E-03       4    7    1        -0.1798796067E-01      0.4167248293E-01
          0                24           2             4    7     1      -0.2753542599E-03       4    7    1        -0.1523071000E-01      0.3528546990E-01
          0                25           2             4    7     1      -0.2331928229E-03       4    7    1        -0.1289849229E-01      0.2988291653E-01
          0                26           2             4    7     1      -0.1975105666E-03       4    7    1        -0.1092470210E-01      0.2531047410E-01
          0                27           2             4    7     1      -0.1673022762E-03       4    7    1        -0.9253726342E-02      0.2143943271E-01
          0                28           2             4    7     1      -0.1417447619E-03       4    7    1        -0.7840020381E-02      0.1816448624E-01
          0                29           2             4    7     1      -0.1200765119E-03       4    7    1        -0.6641467289E-02      0.1538758548E-01
          0                30           1             4    7     1      -0.1017409661E-03       4    7    1        -0.5627262658E-02      0.1303806576E-01
          0                31           1             4    7     1      -0.8622500521E-04       4    7    1        -0.4769028742E-02      0.1104981783E-01

    ------------------------------------------------
       NWT REQUIRED           31 OUTER ITERATIONS 
       AND A TOTAL OF         60 INNER ITERATIONS.
    ------------------------------------------------

 NO OUTPUT CONTROL FOR STRESS PERIOD   44   TIME STEP    5
 
 SOLVING FOR HEAD 
                                                   Max.-Head-Change                         Max.-Flux-Residual
  Residual-Control   Outer-Iter.   Inner-Iter.     Column Row Layer    Maximum-Head-Change  Column Row Layer    Maximum-Flux-Residual          L2-NORM 
          0                 1           2             4    7     1      -0.1539764167E+00       4    7    1        -0.8072456522E+01      0.1765356261E+02
          0                 2           2             5    8     1      -0.3198414514E-02       5    8    1        -0.1779256784E+00      0.4549471258E+00
          0                 3           2             4    7     1      -0.1235941915E-01       4    7    1        -0.6455826644E+00      0.1556386045E+01
          0                 4           2             4    7     1      -0.8800293610E-02       5    8    1        -0.4611479272E+00      0.1127744015E+01
          0                 5           2             4    7     1      -0.7342187892E-02       4    7    1        -0.3833054683E+00      0.9386398034E+00
          0                 6           2             4    7     1      -0.6047298868E-02       5    6    1        -0.3157097135E+00      0.7733201830E+00
          0                 7           2             4    7     1      -0.5017446941E-02       4    7    1        -0.2619376964E+00      0.6416018848E+00
          0                 8           2             4    7     1      -0.4178111383E-02       4    7    1        -0.2181198218E+00      0.5342747767E+00
          0                 9           2             4    7     1      -0.3490143434E-02       4    7    1        -0.1822042007E+00      0.4463008514E+00
          0                10           2             4    7     1      -0.2922785922E-02       4    7    1        -0.1525850905E+00      0.3737502330E+00
                                                   Max.-Head-Change                         Max.-Flux-Residual
  Residual-Control   Outer-Iter.   Inner-Iter.     Column Row Layer    Maximum-Head-Change  Column Row Layer    Maximum-Flux-Residual          L2-NORM 
          0                11           2             4    7     1      -0.2452626429E-02       4    7    1        -0.1280402410E+00      0.3136287486E+00
          0                12           2             4    7     1      -0.2061546395E-02       4    7    1        -0.1076237649E+00      0.2636195254E+00
          0                13           2             4    7     1      -0.1735190771E-02       4    7    1        -0.9058625121E-01      0.2218869137E+00
          0                14           2             4    7     1      -0.1462171147E-02       4    7    1        -0.7633316322E-01      0.1869746244E+00
          0                15           2             4    7     1      -0.1233286850E-02       4    7    1        -0.6438417633E-01      0.1577061249E+00
          0                16           2             4    7     1      -0.1041036542E-02       4    7    1        -0.5434768025E-01      0.1331221838E+00
          0                17           2             4    7     1      -0.8793199697E-03       4    7    1        -0.4590520899E-01      0.1124427337E+00
          0                18           2             4    7     1      -0.7431389764E-03       4    7    1        -0.3879583188E-01      0.9502863684E-01
          0                19           2             4    7     1      -0.6283533830E-03       4    7    1        -0.3280340932E-01      0.8035046931E-01
          0                20           2             4    7     1      -0.5314861872E-03       4    7    1        -0.2774642311E-01      0.6796361050E-01
                                                   Max.-Head-Change                         Max.-Flux-Residual
  Residual-Control   Outer-Iter.   Inner-Iter.     Column Row Layer    Maximum-Head-Change  Column Row Layer    Maximum-Flux-Residual          L2-NORM 
          0                21           2             4    7     1      -0.4497247771E-03       4    7    1        -0.2347803984E-01      0.5750839886E-01
          0                22           2             4    7     1      -0.3806102582E-03       4    7    1        -0.1986989204E-01      0.4867040393E-01
          0                23           2             4    7     1      -0.3222146642E-03       4    7    1        -0.1682132951E-01      0.4120308786E-01
          0                24           2             4    7     1      -0.2728309509E-03       4    7    1        -0.1424323540E-01      0.3488816278E-01
          0                25           2             4    7     1      -0.2310587996E-03       4    7    1        -0.1206250556E-01      0.2954656356E-01
          0                26           2             4    7     1      -0.1957047000E-03       4    7    1        -0.1021683239E-01      0.2502567042E-01
          0                27           2             4    7     1      -0.1657736733E-03       4    7    1        -0.8654272648E-02      0.2119825084E-01
          0                28           2             4    7     1      -0.1404518324E-03       4    7    1        -0.7332337068E-02      0.1796022929E-01
          0                29           2             4    7     1      -0.1189802511E-03       4    7    1        -0.6211405642E-02      0.1521455829E-01
          0                30           1             4    7     1      -0.1008137215E-03       4    7    1        -0.5263015545E-02      0.1289151955E-01
          0                31           1             4    7     1      -0.8544046190E-04       4    7    1        -0.4460449235E-02      0.1092566964E-01

    ------------------------------------------------
       NWT REQUIRED           31 OUTER ITERATIONS 
       AND A TOTAL OF         60 INNER ITERATIONS.
    ------------------------------------------------

 NO OUTPUT CONTROL FOR STRESS PERIOD   44   TIME STEP    6
 
 SOLVING FOR HEAD 
                                                   Max.-Head-Change                         Max.-Flux-Residual
  Residual-Control   Outer-Iter.   Inner-Iter.     Column Row Layer    Maximum-Head-Change  Column Row Layer    Maximum-Flux-Residual          L2-NORM 
          0                 1           2             4    7     1      -0.1521200502E+00       4    7    1        -0.7978613839E+01      0.1728264652E+02
          0                 2           2             5    8     1      -0.3667071834E-02       5    8    1        -0.2036252068E+00      0.5093091004E+00
          0                 3           2             4    7     1      -0.1234089149E-01       4    7    1        -0.6446453534E+00      0.1551837131E+01
          0                 4           2             4    7     1      -0.8802181067E-02       5    8    1        -0.4614025258E+00      0.1128202082E+01
          0                 5           2             4    7     1      -0.7342027552E-02       4    7    1        -0.3832961181E+00      0.9385940988E+00
          0                 6           2             4    7     1      -0.6047338332E-02       5    6    1        -0.3157121708E+00      0.7733247463E+00
          0                 7           2             4    7     1      -0.5017462419E-02       4    7    1        -0.2619376027E+00      0.6416014252E+00
          0                 8           2             4    7     1      -0.4178126004E-02       4    7    1        -0.2181198309E+00      0.5342748198E+00
          0                 9           2             4    7     1      -0.3490155473E-02       4    7    1        -0.1822041996E+00      0.4463008446E+00
          0                10           2             4    7     1      -0.2922796021E-02       4    7    1        -0.1525850904E+00      0.3737502317E+00
                                                   Max.-Head-Change                         Max.-Flux-Residual
  Residual-Control   Outer-Iter.   Inner-Iter.     Column Row Layer    Maximum-Head-Change  Column Row Layer    Maximum-Flux-Residual          L2-NORM 
          0                11           2             4    7     1      -0.2452634903E-02       4    7    1        -0.1280402409E+00      0.3136287471E+00
          0                12           2             4    7     1      -0.2061553517E-02       4    7    1        -0.1076237648E+00      0.2636195242E+00
          0                13           2             4    7     1      -0.1735196766E-02       4    7    1        -0.9058625111E-01      0.2218869126E+00
          0                14           2             4    7     1      -0.1462176199E-02       4    7    1        -0.7633316316E-01      0.1869746235E+00
          0                15           2             4    7     1      -0.1233291112E-02       4    7    1        -0.6438417629E-01      0.1577061241E+00
          0                16           2             4    7     1      -0.1041040138E-02       4    7    1        -0.5434768019E-01      0.1331221832E+00
          0                17           2             4    7     1      -0.8793230075E-03       4    7    1        -0.4590520894E-01      0.1124427332E+00
          0                18           2             4    7     1      -0.7431415440E-03       4    7    1        -0.3879583184E-01      0.9502863642E-01
          0                19           2             4    7     1      -0.6283555541E-03       4    7    1        -0.3280340929E-01      0.8035046893E-01
          0                20           2             4    7     1      -0.5314880235E-03       4    7    1        -0.2774642307E-01      0.6796361020E-01
                                                   Max.-Head-Change                         Max.-Flux-Residual
  Residual-Control   Outer-Iter.   Inner-Iter.     Column Row Layer    Maximum-Head-Change  Column Row Layer    Maximum-Flux-Residual          L2-NORM 
          0                21           2             4    7     1      -0.4497263301E-03       4    7    1        -0.2347803980E-01      0.5750839860E-01
          0                22           2             4    7     1      -0.3806115736E-03       4    7    1        -0.1986989203E-01      0.4867040372E-01
          0                23           2             4    7     1      -0.3222157777E-03       4    7    1        -0.1682132950E-01      0.4120308767E-01
          0                24           2             4    7     1      -0.2728318935E-03       4    7    1        -0.1424323537E-01      0.3488816262E-01
          0                25           2             4    7     1      -0.2310595977E-03       4    7    1        -0.1206250555E-01      0.2954656343E-01
          0                26           2             4    7     1      -0.1957053763E-03       4    7    1        -0.1021683239E-01      0.2502567034E-01
          0                27           2             4    7     1      -0.1657742459E-03       4    7    1        -0.8654272638E-02      0.2119825075E-01
          0                28           2             4    7     1      -0.1404523177E-03       4    7    1        -0.7332337067E-02      0.1796022921E-01
          0                29           2             4    7     1      -0.1189806623E-03       4    7    1        -0.6211405634E-02      0.1521455825E-01
          0                30           1             4    7     1      -0.1008140695E-03       4    7    1        -0.5263015529E-02      0.1289151955E-01
          0                31           1             4    7     1      -0.8544075753E-04       4    7    1        -0.4460449231E-02      0.1092566956E-01

    ------------------------------------------------
       NWT REQUIRED           31 OUTER ITERATIONS 
       AND A TOTAL OF         60 INNER ITERATIONS.
    ------------------------------------------------

 NO OUTPUT CONTROL FOR STRESS PERIOD   44   TIME STEP    7
 
 SOLVING FOR HEAD 
                                                   Max.-Head-Change                         Max.-Flux-Residual
  Residual-Control   Outer-Iter.   Inner-Iter.     Column Row Layer    Maximum-Head-Change  Column Row Layer    Maximum-Flux-Residual          L2-NORM 
          0                 1           2             4    7     1      -0.1502194980E+00       4    7    1        -0.7882168960E+01      0.1693203875E+02
          0                 2           2             5    8     1      -0.4111571040E-02       5    8    1        -0.2279779769E+00      0.5617706234E+00
          0                 3           2             4    7     1      -0.1232192361E-01       4    7    1        -0.6436820104E+00      0.1547436754E+01
          0                 4           2             4    7     1      -0.8804113832E-02       5    8    1        -0.4616438214E+00      0.1128645514E+01
          0                 5           2             4    7     1      -0.7341863737E-02       4    7    1        -0.3832865070E+00      0.9385498536E+00
          0                 6           2             4    7     1      -0.6047379013E-02       5    6    1        -0.3157145086E+00      0.7733291641E+00
          0                 7           2             4    7     1      -0.5017478496E-02       4    7    1        -0.2619375063E+00      0.6416009804E+00
          0                 8           2             4    7     1      -0.4178141165E-02       4    7    1        -0.2181198403E+00      0.5342748617E+00
          0                 9           2             4    7     1      -0.3490167960E-02       4    7    1        -0.1822041984E+00      0.4463008383E+00
          0                10           2             4    7     1      -0.2922806497E-02       4    7    1        -0.1525850903E+00      0.3737502305E+00
                                                   Max.-Head-Change                         Max.-Flux-Residual
  Residual-Control   Outer-Iter.   Inner-Iter.     Column Row Layer    Maximum-Head-Change  Column Row Layer    Maximum-Flux-Residual          L2-NORM 
          0                11           2             4    7     1      -0.2452643691E-02       4    7    1        -0.1280402408E+00      0.3136287457E+00
          0                12           2             4    7     1      -0.2061560904E-02       4    7    1        -0.1076237647E+00      0.2636195231E+00
          0                13           2             4    7     1      -0.1735202984E-02       4    7    1        -0.9058625102E-01      0.2218869117E+00
          0                14           2             4    7     1      -0.1462181438E-02       4    7    1        -0.7633316305E-01      0.1869746227E+00
          0                15           2             4    7     1      -0.1233295530E-02       4    7    1        -0.6438417622E-01      0.1577061234E+00
          0                16           2             4    7     1      -0.1041043869E-02       4    7    1        -0.5434768014E-01      0.1331221826E+00
          0                17           2             4    7     1      -0.8793261582E-03       4    7    1        -0.4590520888E-01      0.1124427327E+00
          0                18           2             4    7     1      -0.7431442070E-03       4    7    1        -0.3879583181E-01      0.9502863601E-01
          0                19           2             4    7     1      -0.6283578056E-03       4    7    1        -0.3280340924E-01      0.8035046858E-01
          0                20           2             4    7     1      -0.5314899276E-03       4    7    1        -0.2774642304E-01      0.6796360988E-01
                                                   Max.-Head-Change                         Max.-Flux-Residual
  Residual-Control   Outer-Iter.   Inner-Iter.     Column Row Layer    Maximum-Head-Change  Column Row Layer    Maximum-Flux-Residual          L2-NORM 
          0                21           2             4    7     1      -0.4497279426E-03       4    7    1        -0.2347803980E-01      0.5750839834E-01
          0                22           2             4    7     1      -0.3806129369E-03       4    7    1        -0.1986989198E-01      0.4867040347E-01
          0                23           2             4    7     1      -0.3222169319E-03       4    7    1        -0.1682132947E-01      0.4120308749E-01
          0                24           2             4    7     1      -0.2728328711E-03       4    7    1        -0.1424323537E-01      0.3488816246E-01
          0                25           2             4    7     1      -0.2310604261E-03       4    7    1        -0.1206250555E-01      0.2954656328E-01
          0                26           2             4    7     1      -0.1957060773E-03       4    7    1        -0.1021683237E-01      0.2502567021E-01
          0                27           2             4    7     1      -0.1657748399E-03       4    7    1        -0.8654272630E-02      0.2119825065E-01
          0                28           2             4    7     1      -0.1404528211E-03       4    7    1        -0.7332337060E-02      0.1796022915E-01
          0                29           2             4    7     1      -0.1189810884E-03       4    7    1        -0.6211405627E-02      0.1521455814E-01
          0                30           1             4    7     1      -0.1008144313E-03       4    7    1        -0.5263015545E-02      0.1289151944E-01
          0                31           1             4    7     1      -0.8544106342E-04       4    7    1        -0.4460449219E-02      0.1092566954E-01

    ------------------------------------------------
       NWT REQUIRED           31 OUTER ITERATIONS 
       AND A TOTAL OF         60 INNER ITERATIONS.
    ------------------------------------------------

 NO OUTPUT CONTROL FOR STRESS PERIOD   44   TIME STEP    8
 
 SOLVING FOR HEAD 
                                                   Max.-Head-Change                         Max.-Flux-Residual
  Residual-Control   Outer-Iter.   Inner-Iter.     Column Row Layer    Maximum-Head-Change  Column Row Layer    Maximum-Flux-Residual          L2-NORM 
          0                 1           2             4    7     1      -0.1482802486E+00       4    7    1        -0.7783426577E+01      0.1660032454E+02
          0                 2           2             5    8     1      -0.4533557197E-02       5    8    1        -0.2510765325E+00      0.6123096745E+00
          0                 3           2             4    7     1      -0.1230257024E-01       4    7    1        -0.6426956808E+00      0.1543177517E+01
          0                 4           2             4    7     1      -0.8806086318E-02       5    8    1        -0.4618727273E+00      0.1129074985E+01
          0                 5           2             4    7     1      -0.7341696911E-02       4    7    1        -0.3832766656E+00      0.9385070001E+00
          0                 6           2             4    7     1      -0.6047420789E-02       5    8    1        -0.3157167712E+00      0.7733334432E+00
          0                 7           2             4    7     1      -0.5017495122E-02       4    7    1        -0.2619374077E+00      0.6416005497E+00
          0                 8           2             4    7     1      -0.4178156819E-02       4    7    1        -0.2181198499E+00      0.5342749023E+00
          0                 9           2             4    7     1      -0.3490180855E-02       4    7    1        -0.1822041973E+00      0.4463008322E+00
          0                10           2             4    7     1      -0.2922817313E-02       4    7    1        -0.1525850903E+00      0.3737502295E+00
                                                   Max.-Head-Change                         Max.-Flux-Residual
  Residual-Control   Outer-Iter.   Inner-Iter.     Column Row Layer    Maximum-Head-Change  Column Row Layer    Maximum-Flux-Residual          L2-NORM 
          0                11           2             4    7     1      -0.2452652766E-02       4    7    1        -0.1280402407E+00      0.3136287444E+00
          0                12           2             4    7     1      -0.2061568533E-02       4    7    1        -0.1076237646E+00      0.2636195220E+00
          0                13           2             4    7     1      -0.1735209404E-02       4    7    1        -0.9058625092E-01      0.2218869108E+00
          0                14           2             4    7     1      -0.1462186848E-02       4    7    1        -0.7633316299E-01      0.1869746220E+00
          0                15           2             4    7     1      -0.1233300094E-02       4    7    1        -0.6438417615E-01      0.1577061228E+00
          0                16           2             4    7     1      -0.1041047721E-02       4    7    1        -0.5434768009E-01      0.1331221821E+00
          0                17           2             4    7     1      -0.8793294122E-03       4    7    1        -0.4590520886E-01      0.1124427323E+00
          0                18           2             4    7     1      -0.7431469569E-03       4    7    1        -0.3879583177E-01      0.9502863567E-01
          0                19           2             4    7     1      -0.6283601304E-03       4    7    1        -0.3280340921E-01      0.8035046825E-01
          0                20           2             4    7     1      -0.5314918945E-03       4    7    1        -0.2774642303E-01      0.6796360969E-01
                                                   Max.-Head-Change                         Max.-Flux-Residual
  Residual-Control   Outer-Iter.   Inner-Iter.     Column Row Layer    Maximum-Head-Change  Column Row Layer    Maximum-Flux-Residual          L2-NORM 
          0                21           2             4    7     1      -0.4497296063E-03       4    7    1        -0.2347803977E-01      0.5750839819E-01
          0                22           2             4    7     1      -0.3806143454E-03       4    7    1        -0.1986989198E-01      0.4867040330E-01
          0                23           2             4    7     1      -0.3222181246E-03       4    7    1        -0.1682132946E-01      0.4120308734E-01
          0                24           2             4    7     1      -0.2728338802E-03       4    7    1        -0.1424323533E-01      0.3488816246E-01
          0                25           2             4    7     1      -0.2310612809E-03       4    7    1        -0.1206250554E-01      0.2954656323E-01
          0                26           2             4    7     1      -0.1957068015E-03       4    7    1        -0.1021683236E-01      0.2502567013E-01
          0                27           2             4    7     1      -0.1657754537E-03       4    7    1        -0.8654272630E-02      0.2119825062E-01
          0                28           2             4    7     1      -0.1404533406E-03       4    7    1        -0.7332337035E-02      0.1796022912E-01
          0                29           2             4    7     1      -0.1189815285E-03       4    7    1        -0.6211405614E-02      0.1521455814E-01
          0                30           1             4    7     1      -0.1008148042E-03       4    7    1        -0.5263015545E-02      0.1289151978E-01
          0                31           1             4    7     1      -0.8544137968E-04       4    7    1        -0.4460449224E-02      0.1092566969E-01

    ------------------------------------------------
       NWT REQUIRED           31 OUTER ITERATIONS 
       AND A TOTAL OF         60 INNER ITERATIONS.
    ------------------------------------------------

 NO OUTPUT CONTROL FOR STRESS PERIOD   44   TIME STEP    9
 
 SOLVING FOR HEAD 
                                                   Max.-Head-Change                         Max.-Flux-Residual
  Residual-Control   Outer-Iter.   Inner-Iter.     Column Row Layer    Maximum-Head-Change  Column Row Layer    Maximum-Flux-Residual          L2-NORM 
          0                 1           2             4    7     1      -0.1463073067E+00       4    7    1        -0.7682663975E+01      0.1628624446E+02
          0                 2           2             5    8     1      -0.4934503920E-02       5    8    1        -0.2730038315E+00      0.6609552799E+00
          0                 3           2             4    7     1      -0.1228288131E-01       4    7    1        -0.6416891362E+00      0.1539052884E+01
          0                 4           2             4    7     1      -0.8808093426E-02       5    8    1        -0.4620900618E+00      0.1129491094E+01
          0                 5           2             4    7     1      -0.7341527499E-02       4    7    1        -0.3832666216E+00      0.9384654783E+00
          0                 6           2             4    7     1      -0.6047463545E-02       5    8    1        -0.3157189364E+00      0.7733375896E+00
          0                 7           2             4    7     1      -0.5017512248E-02       4    7    1        -0.2619373071E+00      0.6416001325E+00
          0                 8           2             4    7     1      -0.4178172921E-02       4    7    1        -0.2181198598E+00      0.5342749418E+00
          0                 9           2             4    7     1      -0.3490194121E-02       4    7    1        -0.1822041961E+00      0.4463008264E+00
          0                10           2             4    7     1      -0.2922828442E-02       4    7    1        -0.1525850903E+00      0.3737502285E+00
                                                   Max.-Head-Change                         Max.-Flux-Residual
  Residual-Control   Outer-Iter.   Inner-Iter.     Column Row Layer    Maximum-Head-Change  Column Row Layer    Maximum-Flux-Residual          L2-NORM 
          0                11           2             4    7     1      -0.2452662102E-02       4    7    1        -0.1280402405E+00      0.3136287432E+00
          0                12           2             4    7     1      -0.2061576380E-02       4    7    1        -0.1076237645E+00      0.2636195210E+00
          0                13           2             4    7     1      -0.1735216009E-02       4    7    1        -0.9058625084E-01      0.2218869099E+00
          0                14           2             4    7     1      -0.1462192415E-02       4    7    1        -0.7633316295E-01      0.1869746213E+00
          0                15           2             4    7     1      -0.1233304788E-02       4    7    1        -0.6438417608E-01      0.1577061222E+00
          0                16           2             4    7     1      -0.1041051684E-02       4    7    1        -0.5434768004E-01      0.1331221816E+00
          0                17           2             4    7     1      -0.8793327594E-03       4    7    1        -0.4590520881E-01      0.1124427318E+00
          0                18           2             4    7     1      -0.7431497855E-03       4    7    1        -0.3879583173E-01      0.9502863527E-01
          0                19           2             4    7     1      -0.6283625224E-03       4    7    1        -0.3280340918E-01      0.8035046796E-01
          0                20           2             4    7     1      -0.5314939176E-03       4    7    1        -0.2774642300E-01      0.6796360937E-01
                                                   Max.-Head-Change                         Max.-Flux-Residual
  Residual-Control   Outer-Iter.   Inner-Iter.     Column Row Layer    Maximum-Head-Change  Column Row Layer    Maximum-Flux-Residual          L2-NORM 
          0                21           2             4    7     1      -0.4497313180E-03       4    7    1        -0.2347803975E-01      0.5750839790E-01
          0                22           2             4    7     1      -0.3806157947E-03       4    7    1        -0.1986989197E-01      0.4867040312E-01
          0                23           2             4    7     1      -0.3222193509E-03       4    7    1        -0.1682132944E-01      0.4120308716E-01
          0                24           2             4    7     1      -0.2728349191E-03       4    7    1        -0.1424323533E-01      0.3488816220E-01
          0                25           2             4    7     1      -0.2310621603E-03       4    7    1        -0.1206250552E-01      0.2954656307E-01
          0                26           2             4    7     1      -0.1957075465E-03       4    7    1        -0.1021683236E-01      0.2502567001E-01
          0                27           2             4    7     1      -0.1657760847E-03       4    7    1        -0.8654272625E-02      0.2119825051E-01
          0                28           2             4    7     1      -0.1404538752E-03       4    7    1        -0.7332337037E-02      0.1796022901E-01
          0                29           2             4    7     1      -0.1189819818E-03       4    7    1        -0.6211405623E-02      0.1521455805E-01
          0                30           1             4    7     1      -0.1008151878E-03       4    7    1        -0.5263015523E-02      0.1289151935E-01
          0                31           1             4    7     1      -0.8544170483E-04       4    7    1        -0.4460449219E-02      0.1092566944E-01

    ------------------------------------------------
       NWT REQUIRED           31 OUTER ITERATIONS 
       AND A TOTAL OF         60 INNER ITERATIONS.
    ------------------------------------------------

 NO OUTPUT CONTROL FOR STRESS PERIOD   44   TIME STEP   10
 
 SOLVING FOR HEAD 
                                                   Max.-Head-Change                         Max.-Flux-Residual
  Residual-Control   Outer-Iter.   Inner-Iter.     Column Row Layer    Maximum-Head-Change  Column Row Layer    Maximum-Flux-Residual          L2-NORM 
          0                 1           2             4    7     1      -0.1443057291E+00       4    7    1        -0.7580162410E+01      0.1598860828E+02
          0                 2           2             5    8     1      -0.5315815965E-02       5    8    1        -0.2938386202E+00      0.7076496539E+00
          0                 3           2             4    7     1      -0.1226290713E-01       4    7    1        -0.6406651880E+00      0.1535056069E+01
          0                 4           2             4    7     1      -0.8810130031E-02       5    8    1        -0.4622966030E+00      0.1129894457E+01
          0                 5           2             4    7     1      -0.7341355934E-02       4    7    1        -0.3832564031E+00      0.9384252254E+00
          0                 6           2             4    7     1      -0.6047507174E-02       5    8    1        -0.3157209942E+00      0.7733416086E+00
          0                 7           2             4    7     1      -0.5017529832E-02       4    7    1        -0.2619372047E+00      0.6415997274E+00
          0                 8           2             4    7     1      -0.4178189431E-02       4    7    1        -0.2181198698E+00      0.5342749796E+00
          0                 9           2             4    7     1      -0.3490207725E-02       4    7    1        -0.1822041949E+00      0.4463008204E+00
          0                10           2             4    7     1      -0.2922839852E-02       4    7    1        -0.1525850902E+00      0.3737502272E+00
                                                   Max.-Head-Change                         Max.-Flux-Residual
  Residual-Control   Outer-Iter.   Inner-Iter.     Column Row Layer    Maximum-Head-Change  Column Row Layer    Maximum-Flux-Residual          L2-NORM 
          0                11           2             4    7     1      -0.2452671676E-02       4    7    1        -0.1280402404E+00      0.3136287417E+00
          0                12           2             4    7     1      -0.2061584427E-02       4    7    1        -0.1076237644E+00      0.2636195199E+00
          0                13           2             4    7     1      -0.1735222784E-02       4    7    1        -0.9058625079E-01      0.2218869090E+00
          0                14           2             4    7     1      -0.1462198122E-02       4    7    1        -0.7633316285E-01      0.1869746205E+00
          0                15           2             4    7     1      -0.1233309603E-02       4    7    1        -0.6438417603E-01      0.1577061216E+00
          0                16           2             4    7     1      -0.1041055747E-02       4    7    1        -0.5434767999E-01      0.1331221810E+00
          0                17           2             4    7     1      -0.8793361919E-03       4    7    1        -0.4590520878E-01      0.1124427313E+00
          0                18           2             4    7     1      -0.7431526864E-03       4    7    1        -0.3879583170E-01      0.9502863485E-01
          0                19           2             4    7     1      -0.6283649753E-03       4    7    1        -0.3280340917E-01      0.8035046761E-01
          0                20           2             4    7     1      -0.5314959926E-03       4    7    1        -0.2774642299E-01      0.6796360908E-01
                                                   Max.-Head-Change                         Max.-Flux-Residual
  Residual-Control   Outer-Iter.   Inner-Iter.     Column Row Layer    Maximum-Head-Change  Column Row Layer    Maximum-Flux-Residual          L2-NORM 
          0                21           2             4    7     1      -0.4497330735E-03       4    7    1        -0.2347803972E-01      0.5750839765E-01
          0                22           2             4    7     1      -0.3806172799E-03       4    7    1        -0.1986989194E-01      0.4867040291E-01
          0                23           2             4    7     1      -0.3222206091E-03       4    7    1        -0.1682132945E-01      0.4120308700E-01
          0                24           2             4    7     1      -0.2728359842E-03       4    7    1        -0.1424323532E-01      0.3488816205E-01
          0                25           2             4    7     1      -0.2310630624E-03       4    7    1        -0.1206250551E-01      0.2954656293E-01
          0                26           2             4    7     1      -0.1957083106E-03       4    7    1        -0.1021683234E-01      0.2502566991E-01
          0                27           2             4    7     1      -0.1657767317E-03       4    7    1        -0.8654272607E-02      0.2119825041E-01
          0                28           2             4    7     1      -0.1404544235E-03       4    7    1        -0.7332337027E-02      0.1796022892E-01
          0                29           2             4    7     1      -0.1189824461E-03       4    7    1        -0.6211405602E-02      0.1521455797E-01
          0                30           1             4    7     1      -0.1008155812E-03       4    7    1        -0.5263015516E-02      0.1289151930E-01
          0                31           1             4    7     1      -0.8544203835E-04       4    7    1        -0.4460449216E-02      0.1092566941E-01

    ------------------------------------------------
       NWT REQUIRED           31 OUTER ITERATIONS 
       AND A TOTAL OF         60 INNER ITERATIONS.
    ------------------------------------------------

 NO OUTPUT CONTROL FOR STRESS PERIOD   44   TIME STEP   11
 
 SOLVING FOR HEAD 
                                                   Max.-Head-Change                         Max.-Flux-Residual
  Residual-Control   Outer-Iter.   Inner-Iter.     Column Row Layer    Maximum-Head-Change  Column Row Layer    Maximum-Flux-Residual          L2-NORM 
          0                 1           2             4    7     1      -0.1422801066E+00       4    7    1        -0.7476176833E+01      0.1570639981E+02
          0                 2           2             5    8     1      -0.5678760585E-02       5    8    1        -0.3136527695E+00      0.7528191123E+00
          0                 3           2             4    7     1      -0.1224269384E-01       4    7    1        -0.6396263846E+00      0.1531182333E+01
          0                 4           2             4    7     1      -0.8812191398E-02       5    8    1        -0.4624930575E+00      0.1130285565E+01
          0                 5           2             4    7     1      -0.7341182590E-02       4    7    1        -0.3832460356E+00      0.9383861956E+00
          0                 6           2             4    7     1      -0.6047551556E-02       5    8    1        -0.3157229517E+00      0.7733455068E+00
          0                 7           2             4    7     1      -0.5017547817E-02       4    7    1        -0.2619371008E+00      0.6415993357E+00
          0                 8           2             4    7     1      -0.4178206297E-02       4    7    1        -0.2181198800E+00      0.5342750169E+00
          0                 9           2             4    7     1      -0.3490221625E-02       4    7    1        -0.1822041937E+00      0.4463008151E+00
          0                10           2             4    7     1      -0.2922851512E-02       4    7    1        -0.1525850902E+00      0.3737502269E+00
                                                   Max.-Head-Change                         Max.-Flux-Residual
  Residual-Control   Outer-Iter.   Inner-Iter.     Column Row Layer    Maximum-Head-Change  Column Row Layer    Maximum-Flux-Residual          L2-NORM 
          0                11           2             4    7     1      -0.2452681458E-02       4    7    1        -0.1280402403E+00      0.3136287412E+00
          0                12           2             4    7     1      -0.2061592650E-02       4    7    1        -0.1076237644E+00      0.2636195191E+00
          0                13           2             4    7     1      -0.1735229704E-02       4    7    1        -0.9058625070E-01      0.2218869083E+00
          0                14           2             4    7     1      -0.1462203954E-02       4    7    1        -0.7633316279E-01      0.1869746207E+00
          0                15           2             4    7     1      -0.1233314522E-02       4    7    1        -0.6438417598E-01      0.1577061218E+00
          0                16           2             4    7     1      -0.1041059899E-02       4    7    1        -0.5434767993E-01      0.1331221806E+00
          0                17           2             4    7     1      -0.8793396992E-03       4    7    1        -0.4590520875E-01      0.1124427310E+00
          0                18           2             4    7     1      -0.7431556505E-03       4    7    1        -0.3879583167E-01      0.9502863624E-01
          0                19           2             4    7     1      -0.6283674814E-03       4    7    1        -0.3280340912E-01      0.8035046877E-01
          0                20           2             4    7     1      -0.5314981122E-03       4    7    1        -0.2774642295E-01      0.6796360890E-01
                                                   Max.-Head-Change                         Max.-Flux-Residual
  Residual-Control   Outer-Iter.   Inner-Iter.     Column Row Layer    Maximum-Head-Change  Column Row Layer    Maximum-Flux-Residual          L2-NORM 
          0                21           2             4    7     1      -0.4497348674E-03       4    7    1        -0.2347803970E-01      0.5750839749E-01
          0                22           2             4    7     1      -0.3806187979E-03       4    7    1        -0.1986989192E-01      0.4867040606E-01
          0                23           2             4    7     1      -0.3222218941E-03       4    7    1        -0.1682132943E-01      0.4120308925E-01
          0                24           2             4    7     1      -0.2728370723E-03       4    7    1        -0.1424323531E-01      0.3488816211E-01
          0                25           2             4    7     1      -0.2310639836E-03       4    7    1        -0.1206250550E-01      0.2954656286E-01
          0                26           2             4    7     1      -0.1957090913E-03       4    7    1        -0.1021683235E-01      0.2502567628E-01
          0                27           2             4    7     1      -0.1657773930E-03       4    7    1        -0.8654272603E-02      0.2119825453E-01
          0                28           2             4    7     1      -0.1404549834E-03       4    7    1        -0.7332337025E-02      0.1796022924E-01
          0                29           2             4    7     1      -0.1189829209E-03       4    7    1        -0.6211405624E-02      0.1521455800E-01
          0                30           1             4    7     1      -0.1008159834E-03       4    7    1        -0.5263015518E-02      0.1289153156E-01
          0                31           1             4    7     1      -0.8544237900E-04       4    7    1        -0.4460449215E-02      0.1092567699E-01

    ------------------------------------------------
       NWT REQUIRED           31 OUTER ITERATIONS 
       AND A TOTAL OF         60 INNER ITERATIONS.
    ------------------------------------------------

 NO OUTPUT CONTROL FOR STRESS PERIOD   44   TIME STEP   12
 
 SOLVING FOR HEAD 
                                                   Max.-Head-Change                         Max.-Flux-Residual
  Residual-Control   Outer-Iter.   Inner-Iter.     Column Row Layer    Maximum-Head-Change  Column Row Layer    Maximum-Flux-Residual          L2-NORM 
          0                 1           2             4    7     1      -0.1402344339E+00       4    7    1        -0.7370930526E+01      0.1543863124E+02
          0                 2           2             5    8     1      -0.6024528743E-02       5    8    1        -0.3325125434E+00      0.7961957945E+00
          0                 3           2             4    7     1      -0.1222228091E-01       4    7    1        -0.6385749582E+00      0.1527424972E+01
          0                 4           2             4    7     1      -0.8814273504E-02       5    8    1        -0.4626800817E+00      0.1130665009E+01
          0                 5           2             4    7     1      -0.7341007809E-02       4    7    1        -0.3832355413E+00      0.9383483271E+00
          0                 6           2             4    7     1      -0.6047596606E-02       5    8    1        -0.3157248155E+00      0.7733492888E+00
          0                 7           2             4    7     1      -0.5017566171E-02       4    7    1        -0.2619369957E+00      0.6415989553E+00
          0                 8           2             4    7     1      -0.4178223489E-02       4    7    1        -0.2181198903E+00      0.5342750532E+00
          0                 9           2             4    7     1      -0.3490235795E-02       4    7    1        -0.1822041926E+00      0.4463008100E+00
          0                10           2             4    7     1      -0.2922863398E-02       4    7    1        -0.1525850902E+00      0.3737502257E+00
                                                   Max.-Head-Change                         Max.-Flux-Residual
  Residual-Control   Outer-Iter.   Inner-Iter.     Column Row Layer    Maximum-Head-Change  Column Row Layer    Maximum-Flux-Residual          L2-NORM 
          0                11           2             4    7     1      -0.2452691430E-02       4    7    1        -0.1280402402E+00      0.3136287398E+00
          0                12           2             4    7     1      -0.2061601031E-02       4    7    1        -0.1076237643E+00      0.2636195183E+00
          0                13           2             4    7     1      -0.1735236759E-02       4    7    1        -0.9058625063E-01      0.2218869077E+00
          0                14           2             4    7     1      -0.1462209899E-02       4    7    1        -0.7633316275E-01      0.1869746194E+00
          0                15           2             4    7     1      -0.1233319536E-02       4    7    1        -0.6438417594E-01      0.1577061206E+00
          0                16           2             4    7     1      -0.1041064132E-02       4    7    1        -0.5434767990E-01      0.1331221802E+00
          0                17           2             4    7     1      -0.8793432744E-03       4    7    1        -0.4590520871E-01      0.1124427306E+00
          0                18           2             4    7     1      -0.7431586721E-03       4    7    1        -0.3879583164E-01      0.9502863429E-01
          0                19           2             4    7     1      -0.6283700363E-03       4    7    1        -0.3280340910E-01      0.8035046713E-01
          0                20           2             4    7     1      -0.5315002730E-03       4    7    1        -0.2774642292E-01      0.6796360867E-01
                                                   Max.-Head-Change                         Max.-Flux-Residual
  Residual-Control   Outer-Iter.   Inner-Iter.     Column Row Layer    Maximum-Head-Change  Column Row Layer    Maximum-Flux-Residual          L2-NORM 
          0                21           2             4    7     1      -0.4497366957E-03       4    7    1        -0.2347803968E-01      0.5750839730E-01
          0                22           2             4    7     1      -0.3806203457E-03       4    7    1        -0.1986989192E-01      0.4867040261E-01
          0                23           2             4    7     1      -0.3222232042E-03       4    7    1        -0.1682132941E-01      0.4120308676E-01
          0                24           2             4    7     1      -0.2728381813E-03       4    7    1        -0.1424323529E-01      0.3488816181E-01
          0                25           2             4    7     1      -0.2310649234E-03       4    7    1        -0.1206250550E-01      0.2954656277E-01
          0                26           2             4    7     1      -0.1957098870E-03       4    7    1        -0.1021683233E-01      0.2502566975E-01
          0                27           2             4    7     1      -0.1657780665E-03       4    7    1        -0.8654272583E-02      0.2119825027E-01
          0                28           2             4    7     1      -0.1404555550E-03       4    7    1        -0.7332337031E-02      0.1796022882E-01
          0                29           2             4    7     1      -0.1189834043E-03       4    7    1        -0.6211405592E-02      0.1521455788E-01
          0                30           1             4    7     1      -0.1008163932E-03       4    7    1        -0.5263015513E-02      0.1289151922E-01
          0                31           1             4    7     1      -0.8544272678E-04       4    7    1        -0.4460449211E-02      0.1092566932E-01

    ------------------------------------------------
       NWT REQUIRED           31 OUTER ITERATIONS 
       AND A TOTAL OF         60 INNER ITERATIONS.
    ------------------------------------------------

 NO OUTPUT CONTROL FOR STRESS PERIOD   44   TIME STEP   13
 
 SOLVING FOR HEAD 
                                                   Max.-Head-Change                         Max.-Flux-Residual
  Residual-Control   Outer-Iter.   Inner-Iter.     Column Row Layer    Maximum-Head-Change  Column Row Layer    Maximum-Flux-Residual          L2-NORM 
          0                 1           2             4    7     1      -0.1381728259E+00       4    7    1        -0.7264652553E+01      0.1518435781E+02
          0                 2           2             5    8     1      -0.6354206781E-02       5    8    1        -0.3504791423E+00      0.8379596256E+00
          0                 3           2             4    7     1      -0.1220170950E-01       4    7    1        -0.6375131984E+00      0.1523779321E+01
          0                 4           2             4    7     1      -0.8816372145E-02       5    8    1        -0.4628582789E+00      0.1131033246E+01
          0                 5           2             4    7     1      -0.7340831939E-02       4    7    1        -0.3832249433E+00      0.9383115753E+00
          0                 6           2             4    7     1      -0.6047642232E-02       5    8    1        -0.3157265914E+00      0.7733529597E+00
          0                 7           2             4    7     1      -0.5017584853E-02       4    7    1        -0.2619368896E+00      0.6415985864E+00
          0                 8           2             4    7     1      -0.4178240970E-02       4    7    1        -0.2181199007E+00      0.5342750886E+00
          0                 9           2             4    7     1      -0.3490250204E-02       4    7    1        -0.1822041913E+00      0.4463008052E+00
          0                10           2             4    7     1      -0.2922875484E-02       4    7    1        -0.1525850902E+00      0.3737502251E+00
                                                   Max.-Head-Change                         Max.-Flux-Residual
  Residual-Control   Outer-Iter.   Inner-Iter.     Column Row Layer    Maximum-Head-Change  Column Row Layer    Maximum-Flux-Residual          L2-NORM 
          0                11           2             4    7     1      -0.2452701570E-02       4    7    1        -0.1280402401E+00      0.3136287390E+00
          0                12           2             4    7     1      -0.2061609555E-02       4    7    1        -0.1076237642E+00      0.2636195177E+00
          0                13           2             4    7     1      -0.1735243933E-02       4    7    1        -0.9058625056E-01      0.2218869071E+00
          0                14           2             4    7     1      -0.1462215945E-02       4    7    1        -0.7633316270E-01      0.1869746189E+00
          0                15           2             4    7     1      -0.1233324635E-02       4    7    1        -0.6438417589E-01      0.1577061202E+00
          0                16           2             4    7     1      -0.1041068436E-02       4    7    1        -0.5434767986E-01      0.1331221800E+00
          0                17           2             4    7     1      -0.8793469095E-03       4    7    1        -0.4590520866E-01      0.1124427305E+00
          0                18           2             4    7     1      -0.7431617446E-03       4    7    1        -0.3879583162E-01      0.9502863410E-01
          0                19           2             4    7     1      -0.6283726342E-03       4    7    1        -0.3280340908E-01      0.8035046697E-01
          0                20           2             4    7     1      -0.5315024705E-03       4    7    1        -0.2774642290E-01      0.6796360886E-01
                                                   Max.-Head-Change                         Max.-Flux-Residual
  Residual-Control   Outer-Iter.   Inner-Iter.     Column Row Layer    Maximum-Head-Change  Column Row Layer    Maximum-Flux-Residual          L2-NORM 
          0                21           2             4    7     1      -0.4497385552E-03       4    7    1        -0.2347803966E-01      0.5750839750E-01
          0                22           2             4    7     1      -0.3806219190E-03       4    7    1        -0.1986989190E-01      0.4867040251E-01
          0                23           2             4    7     1      -0.3222245364E-03       4    7    1        -0.1682132941E-01      0.4120308667E-01
          0                24           2             4    7     1      -0.2728393098E-03       4    7    1        -0.1424323529E-01      0.3488816174E-01
          0                25           2             4    7     1      -0.2310658787E-03       4    7    1        -0.1206250548E-01      0.2954656267E-01
          0                26           2             4    7     1      -0.1957106956E-03       4    7    1        -0.1021683231E-01      0.2502567069E-01
          0                27           2             4    7     1      -0.1657787522E-03       4    7    1        -0.8654272596E-02      0.2119825101E-01
          0                28           2             4    7     1      -0.1404561355E-03       4    7    1        -0.7332337023E-02      0.1796022883E-01
          0                29           2             4    7     1      -0.1189838964E-03       4    7    1        -0.6211405599E-02      0.1521455786E-01
          0                30           1             4    7     1      -0.1008168103E-03       4    7    1        -0.5263015510E-02      0.1289151916E-01
          0                31           1             4    7     1      -0.8544307956E-04       4    7    1        -0.4460449199E-02      0.1092567161E-01

    ------------------------------------------------
       NWT REQUIRED           31 OUTER ITERATIONS 
       AND A TOTAL OF         60 INNER ITERATIONS.
    ------------------------------------------------

 NO OUTPUT CONTROL FOR STRESS PERIOD   44   TIME STEP   14
 
 SOLVING FOR HEAD 
                                                   Max.-Head-Change                         Max.-Flux-Residual
  Residual-Control   Outer-Iter.   Inner-Iter.     Column Row Layer    Maximum-Head-Change  Column Row Layer    Maximum-Flux-Residual          L2-NORM 
          0                 1           2             4    7     1      -0.1360988273E+00       4    7    1        -0.7157541668E+01      0.1494271616E+02
          0                 2           2             5    8     1      -0.6668831563E-02       5    8    1        -0.3676106327E+00      0.8781893158E+00
          0                 3           2             4    7     1      -0.1218101498E-01       4    7    1        -0.6364430920E+00      0.1520240249E+01
          0                 4           2             4    7     1      -0.8818483708E-02       5    8    1        -0.4630282224E+00      0.1131390769E+01
          0                 5           2             4    7     1      -0.7340655278E-02       4    7    1        -0.3832142613E+00      0.9382758908E+00
          0                 6           2             4    7     1      -0.6047688349E-02       5    8    1        -0.3157282853E+00      0.7733565241E+00
          0                 7           2             4    7     1      -0.5017603829E-02       4    7    1        -0.2619367826E+00      0.6415982283E+00
          0                 8           2             4    7     1      -0.4178258706E-02       4    7    1        -0.2181199113E+00      0.5342751229E+00
          0                 9           2             4    7     1      -0.3490264826E-02       4    7    1        -0.1822041902E+00      0.4463008006E+00
          0                10           2             4    7     1      -0.2922887749E-02       4    7    1        -0.1525850902E+00      0.3737502246E+00
                                                   Max.-Head-Change                         Max.-Flux-Residual
  Residual-Control   Outer-Iter.   Inner-Iter.     Column Row Layer    Maximum-Head-Change  Column Row Layer    Maximum-Flux-Residual          L2-NORM 
          0                11           2             4    7     1      -0.2452711859E-02       4    7    1        -0.1280402400E+00      0.3136287382E+00
          0                12           2             4    7     1      -0.2061618204E-02       4    7    1        -0.1076237641E+00      0.2636195170E+00
          0                13           2             4    7     1      -0.1735251213E-02       4    7    1        -0.9058625048E-01      0.2218869065E+00
          0                14           2             4    7     1      -0.1462222079E-02       4    7    1        -0.7633316263E-01      0.1869746184E+00
          0                15           2             4    7     1      -0.1233329809E-02       4    7    1        -0.6438417584E-01      0.1577061198E+00
          0                16           2             4    7     1      -0.1041072804E-02       4    7    1        -0.5434767983E-01      0.1331221795E+00
          0                17           2             4    7     1      -0.8793505990E-03       4    7    1        -0.4590520865E-01      0.1124427301E+00
          0                18           2             4    7     1      -0.7431648623E-03       4    7    1        -0.3879583159E-01      0.9502863383E-01
          0                19           2             4    7     1      -0.6283752702E-03       4    7    1        -0.3280340905E-01      0.8035046674E-01
          0                20           2             4    7     1      -0.5315047003E-03       4    7    1        -0.2774642289E-01      0.6796360834E-01
                                                   Max.-Head-Change                         Max.-Flux-Residual
  Residual-Control   Outer-Iter.   Inner-Iter.     Column Row Layer    Maximum-Head-Change  Column Row Layer    Maximum-Flux-Residual          L2-NORM 
          0                21           2             4    7     1      -0.4497404419E-03       4    7    1        -0.2347803966E-01      0.5750839703E-01
          0                22           2             4    7     1      -0.3806235161E-03       4    7    1        -0.1986989190E-01      0.4867040238E-01
          0                23           2             4    7     1      -0.3222258881E-03       4    7    1        -0.1682132939E-01      0.4120308655E-01
          0                24           2             4    7     1      -0.2728404545E-03       4    7    1        -0.1424323529E-01      0.3488816166E-01
          0                25           2             4    7     1      -0.2310668480E-03       4    7    1        -0.1206250547E-01      0.2954656261E-01
          0                26           2             4    7     1      -0.1957115166E-03       4    7    1        -0.1021683231E-01      0.2502566961E-01
          0                27           2             4    7     1      -0.1657794480E-03       4    7    1        -0.8654272591E-02      0.2119825016E-01
          0                28           2             4    7     1      -0.1404567244E-03       4    7    1        -0.7332337001E-02      0.1796022872E-01
          0                29           2             4    7     1      -0.1189843956E-03       4    7    1        -0.6211405599E-02      0.1521455781E-01
          0                30           1             4    7     1      -0.1008172332E-03       4    7    1        -0.5263015506E-02      0.1289151915E-01
          0                31           1             4    7     1      -0.8544343822E-04       4    7    1        -0.4460449200E-02      0.1092566927E-01

    ------------------------------------------------
       NWT REQUIRED           31 OUTER ITERATIONS 
       AND A TOTAL OF         60 INNER ITERATIONS.
    ------------------------------------------------

 NO OUTPUT CONTROL FOR STRESS PERIOD   44   TIME STEP   15
 
 SOLVING FOR HEAD 
                                                   Max.-Head-Change                         Max.-Flux-Residual
  Residual-Control   Outer-Iter.   Inner-Iter.     Column Row Layer    Maximum-Head-Change  Column Row Layer    Maximum-Flux-Residual          L2-NORM 
          0                 1           2             4    7     1      -0.1340158589E+00       4    7    1        -0.7049788886E+01      0.1471294905E+02
          0                 2           2             5    8     1      -0.6969288306E-02       5    8    1        -0.3839584433E+00      0.9169903453E+00
          0                 3           2             4    7     1      -0.1216023145E-01       4    7    1        -0.6353665486E+00      0.1516803466E+01
          0                 4           2             4    7     1      -0.8820604708E-02       5    8    1        -0.4631904108E+00      0.1131738001E+01
          0                 5           2             4    7     1      -0.7340478112E-02       4    7    1        -0.3832035145E+00      0.9382412326E+00
          0                 6           2             4    7     1      -0.6047734879E-02       5    8    1        -0.3157299038E+00      0.7733599871E+00
          0                 7           2             4    7     1      -0.5017623063E-02       4    7    1        -0.2619366750E+00      0.6415978813E+00
          0                 8           2             4    7     1      -0.4178276667E-02       4    7    1        -0.2181199219E+00      0.5342751569E+00
          0                 9           2             4    7     1      -0.3490279634E-02       4    7    1        -0.1822041889E+00      0.4463007967E+00
          0                10           2             4    7     1      -0.2922900169E-02       4    7    1        -0.1525850902E+00      0.3737502246E+00
                                                   Max.-Head-Change                         Max.-Flux-Residual
  Residual-Control   Outer-Iter.   Inner-Iter.     Column Row Layer    Maximum-Head-Change  Column Row Layer    Maximum-Flux-Residual          L2-NORM 
          0                11           2             4    7     1      -0.2452722280E-02       4    7    1        -0.1280402399E+00      0.3136287378E+00
          0                12           2             4    7     1      -0.2061626964E-02       4    7    1        -0.1076237641E+00      0.2636195167E+00
          0                13           2             4    7     1      -0.1735258585E-02       4    7    1        -0.9058625042E-01      0.2218869065E+00
          0                14           2             4    7     1      -0.1462228291E-02       4    7    1        -0.7633316258E-01      0.1869746184E+00
          0                15           2             4    7     1      -0.1233335049E-02       4    7    1        -0.6438417580E-01      0.1577061197E+00
          0                16           2             4    7     1      -0.1041077227E-02       4    7    1        -0.5434767977E-01      0.1331221794E+00
          0                17           2             4    7     1      -0.8793543349E-03       4    7    1        -0.4590520861E-01      0.1124427304E+00
          0                18           2             4    7     1      -0.7431680193E-03       4    7    1        -0.3879583155E-01      0.9502863409E-01
          0                19           2             4    7     1      -0.6283779403E-03       4    7    1        -0.3280340905E-01      0.8035046667E-01
          0                20           2             4    7     1      -0.5315069583E-03       4    7    1        -0.2774642287E-01      0.6796360826E-01
                                                   Max.-Head-Change                         Max.-Flux-Residual
  Residual-Control   Outer-Iter.   Inner-Iter.     Column Row Layer    Maximum-Head-Change  Column Row Layer    Maximum-Flux-Residual          L2-NORM 
          0                21           2             4    7     1      -0.4497423530E-03       4    7    1        -0.2347803965E-01      0.5750839785E-01
          0                22           2             4    7     1      -0.3806251332E-03       4    7    1        -0.1986989188E-01      0.4867040298E-01
          0                23           2             4    7     1      -0.3222272568E-03       4    7    1        -0.1682132937E-01      0.4120308653E-01
          0                24           2             4    7     1      -0.2728416138E-03       4    7    1        -0.1424323529E-01      0.3488816163E-01
          0                25           2             4    7     1      -0.2310678300E-03       4    7    1        -0.1206250547E-01      0.2954656258E-01
          0                26           2             4    7     1      -0.1957123481E-03       4    7    1        -0.1021683229E-01      0.2502567161E-01
          0                27           2             4    7     1      -0.1657801523E-03       4    7    1        -0.8654272584E-02      0.2119825136E-01
          0                28           2             4    7     1      -0.1404573212E-03       4    7    1        -0.7332336997E-02      0.1796022880E-01
          0                29           2             4    7     1      -0.1189849013E-03       4    7    1        -0.6211405595E-02      0.1521455780E-01
          0                30           1             4    7     1      -0.1008176611E-03       4    7    1        -0.5263015494E-02      0.1289151915E-01
          0                31           1             4    7     1      -0.8544380126E-04       4    7    1        -0.4460449203E-02      0.1092567383E-01

    ------------------------------------------------
       NWT REQUIRED           31 OUTER ITERATIONS 
       AND A TOTAL OF         60 INNER ITERATIONS.
    ------------------------------------------------

 NO OUTPUT CONTROL FOR STRESS PERIOD   44   TIME STEP   16
 
 SOLVING FOR HEAD 
                                                   Max.-Head-Change                         Max.-Flux-Residual
  Residual-Control   Outer-Iter.   Inner-Iter.     Column Row Layer    Maximum-Head-Change  Column Row Layer    Maximum-Flux-Residual          L2-NORM 
          0                 1           2             4    7     1      -0.1319270730E+00       4    7    1        -0.6941571534E+01      0.1449430393E+02
          0                 2           2             5    8     1      -0.7256582623E-02       5    8    1        -0.3995725672E+00      0.9543536399E+00
          0                 3           2             4    7     1      -0.1213939033E-01       4    7    1        -0.6342853408E+00      0.1513463971E+01
          0                 4           2             4    7     1      -0.8822731931E-02       5    8    1        -0.4633453811E+00      0.1132075405E+01
          0                 5           2             4    7     1      -0.7340300705E-02       4    7    1        -0.3831927206E+00      0.9382075502E+00
          0                 6           2             4    7     1      -0.6047781747E-02       5    8    1        -0.3157314555E+00      0.7733633545E+00
          0                 7           2             4    7     1      -0.5017642525E-02       4    7    1        -0.2619365669E+00      0.6415975442E+00
          0                 8           2             4    7     1      -0.4178294821E-02       4    7    1        -0.2181199325E+00      0.5342751903E+00
          0                 9           2             4    7     1      -0.3490294605E-02       4    7    1        -0.1822041878E+00      0.4463007930E+00
          0                10           2             4    7     1      -0.2922912725E-02       4    7    1        -0.1525850902E+00      0.3737502247E+00
                                                   Max.-Head-Change                         Max.-Flux-Residual
  Residual-Control   Outer-Iter.   Inner-Iter.     Column Row Layer    Maximum-Head-Change  Column Row Layer    Maximum-Flux-Residual          L2-NORM 
          0                11           2             4    7     1      -0.2452732814E-02       4    7    1        -0.1280402398E+00      0.3136287376E+00
          0                12           2             4    7     1      -0.2061635818E-02       4    7    1        -0.1076237640E+00      0.2636195166E+00
          0                13           2             4    7     1      -0.1735266038E-02       4    7    1        -0.9058625037E-01      0.2218869062E+00
          0                14           2             4    7     1      -0.1462234571E-02       4    7    1        -0.7633316252E-01      0.1869746181E+00
          0                15           2             4    7     1      -0.1233340346E-02       4    7    1        -0.6438417576E-01      0.1577061196E+00
          0                16           2             4    7     1      -0.1041081699E-02       4    7    1        -0.5434767976E-01      0.1331221793E+00
          0                17           2             4    7     1      -0.8793581116E-03       4    7    1        -0.4590520856E-01      0.1124427299E+00
          0                18           2             4    7     1      -0.7431712115E-03       4    7    1        -0.3879583153E-01      0.9502863368E-01
          0                19           2             4    7     1      -0.6283806390E-03       4    7    1        -0.3280340901E-01      0.8035046662E-01
          0                20           2             4    7     1      -0.5315092414E-03       4    7    1        -0.2774642285E-01      0.6796360824E-01
                                                   Max.-Head-Change                         Max.-Flux-Residual
  Residual-Control   Outer-Iter.   Inner-Iter.     Column Row Layer    Maximum-Head-Change  Column Row Layer    Maximum-Flux-Residual          L2-NORM 
          0                21           2             4    7     1      -0.4497442842E-03       4    7    1        -0.2347803961E-01      0.5750839694E-01
          0                22           2             4    7     1      -0.3806267679E-03       4    7    1        -0.1986989186E-01      0.4867040231E-01
          0                23           2             4    7     1      -0.3222286411E-03       4    7    1        -0.1682132937E-01      0.4120308650E-01
          0                24           2             4    7     1      -0.2728427854E-03       4    7    1        -0.1424323527E-01      0.3488816164E-01
          0                25           2             4    7     1      -0.2310688224E-03       4    7    1        -0.1206250546E-01      0.2954656258E-01
          0                26           2             4    7     1      -0.1957131891E-03       4    7    1        -0.1021683230E-01      0.2502566958E-01
          0                27           2             4    7     1      -0.1657808641E-03       4    7    1        -0.8654272568E-02      0.2119825013E-01
          0                28           2             4    7     1      -0.1404579247E-03       4    7    1        -0.7332336994E-02      0.1796022875E-01
          0                29           2             4    7     1      -0.1189854121E-03       4    7    1        -0.6211405585E-02      0.1521455780E-01
          0                30           1             4    7     1      -0.1008180944E-03       4    7    1        -0.5263015501E-02      0.1289151912E-01
          0                31           1             4    7     1      -0.8544416817E-04       4    7    1        -0.4460449193E-02      0.1092566927E-01

    ------------------------------------------------
       NWT REQUIRED           31 OUTER ITERATIONS 
       AND A TOTAL OF         60 INNER ITERATIONS.
    ------------------------------------------------

 NO OUTPUT CONTROL FOR STRESS PERIOD   44   TIME STEP   17
 
 SOLVING FOR HEAD 
                                                   Max.-Head-Change                         Max.-Flux-Residual
  Residual-Control   Outer-Iter.   Inner-Iter.     Column Row Layer    Maximum-Head-Change  Column Row Layer    Maximum-Flux-Residual          L2-NORM 
          0                 1           2             4    7     1      -0.1298353915E+00       4    7    1        -0.6833053036E+01      0.1428608839E+02
          0                 2           2             5    8     1      -0.7531445543E-02       5    8    1        -0.4144991687E+00      0.9903923592E+00
          0                 3           2             4    7     1      -0.1211852079E-01       4    7    1        -0.6332011026E+00      0.1510218339E+01
          0                 4           2             4    7     1      -0.8824862397E-02       5    8    1        -0.4634935442E+00      0.1132403344E+01
          0                 5           2             4    7     1      -0.7340123304E-02       4    7    1        -0.3831818959E+00      0.9381748160E+00
          0                 6           2             4    7     1      -0.6047828887E-02       5    8    1        -0.3157329289E+00      0.7733666235E+00
          0                 7           2             4    7     1      -0.5017662184E-02       4    7    1        -0.2619364585E+00      0.6415972162E+00
          0                 8           2             4    7     1      -0.4178313144E-02       4    7    1        -0.2181199432E+00      0.5342752221E+00
          0                 9           2             4    7     1      -0.3490309714E-02       4    7    1        -0.1822041866E+00      0.4463007890E+00
          0                10           2             4    7     1      -0.2922925398E-02       4    7    1        -0.1525850902E+00      0.3737502244E+00
                                                   Max.-Head-Change                         Max.-Flux-Residual
  Residual-Control   Outer-Iter.   Inner-Iter.     Column Row Layer    Maximum-Head-Change  Column Row Layer    Maximum-Flux-Residual          L2-NORM 
          0                11           2             4    7     1      -0.2452743447E-02       4    7    1        -0.1280402397E+00      0.3136287371E+00
          0                12           2             4    7     1      -0.2061644755E-02       4    7    1        -0.1076237639E+00      0.2636195162E+00
          0                13           2             4    7     1      -0.1735273561E-02       4    7    1        -0.9058625034E-01      0.2218869058E+00
          0                14           2             4    7     1      -0.1462240911E-02       4    7    1        -0.7633316250E-01      0.1869746178E+00
          0                15           2             4    7     1      -0.1233345693E-02       4    7    1        -0.6438417570E-01      0.1577061193E+00
          0                16           2             4    7     1      -0.1041086212E-02       4    7    1        -0.5434767972E-01      0.1331221791E+00
          0                17           2             4    7     1      -0.8793619237E-03       4    7    1        -0.4590520855E-01      0.1124427297E+00
          0                18           2             4    7     1      -0.7431744336E-03       4    7    1        -0.3879583152E-01      0.9502863354E-01
          0                19           2             4    7     1      -0.6283833632E-03       4    7    1        -0.3280340900E-01      0.8035046649E-01
          0                20           2             4    7     1      -0.5315115453E-03       4    7    1        -0.2774642284E-01      0.6796360812E-01
                                                   Max.-Head-Change                         Max.-Flux-Residual
  Residual-Control   Outer-Iter.   Inner-Iter.     Column Row Layer    Maximum-Head-Change  Column Row Layer    Maximum-Flux-Residual          L2-NORM 
          0                21           2             4    7     1      -0.4497462345E-03       4    7    1        -0.2347803962E-01      0.5750839683E-01
          0                22           2             4    7     1      -0.3806284179E-03       4    7    1        -0.1986989183E-01      0.4867040221E-01
          0                23           2             4    7     1      -0.3222300379E-03       4    7    1        -0.1682132935E-01      0.4120308643E-01
          0                24           2             4    7     1      -0.2728439680E-03       4    7    1        -0.1424323525E-01      0.3488816156E-01
          0                25           2             4    7     1      -0.2310698240E-03       4    7    1        -0.1206250546E-01      0.2954656253E-01
          0                26           2             4    7     1      -0.1957140379E-03       4    7    1        -0.1021683230E-01      0.2502566957E-01
          0                27           2             4    7     1      -0.1657815826E-03       4    7    1        -0.8654272553E-02      0.2119825014E-01
          0                28           2             4    7     1      -0.1404585335E-03       4    7    1        -0.7332336991E-02      0.1796022869E-01
          0                29           2             4    7     1      -0.1189859279E-03       4    7    1        -0.6211405588E-02      0.1521455781E-01
          0                30           1             4    7     1      -0.1008185315E-03       4    7    1        -0.5263015505E-02      0.1289151915E-01
          0                31           1             4    7     1      -0.8544453846E-04       4    7    1        -0.4460449195E-02      0.1092566924E-01

    ------------------------------------------------
       NWT REQUIRED           31 OUTER ITERATIONS 
       AND A TOTAL OF         60 INNER ITERATIONS.
    ------------------------------------------------

 NO OUTPUT CONTROL FOR STRESS PERIOD   44   TIME STEP   18
 
 SOLVING FOR HEAD 
                                                   Max.-Head-Change                         Max.-Flux-Residual
  Residual-Control   Outer-Iter.   Inner-Iter.     Column Row Layer    Maximum-Head-Change  Column Row Layer    Maximum-Flux-Residual          L2-NORM 
          0                 1           2             4    7     1      -0.1277434967E+00       4    7    1        -0.6724384860E+01      0.1408762714E+02
          0                 2           2             5    8     1      -0.7794663937E-02       5    8    1        -0.4287814957E+00      0.1025179663E+01
          0                 3           2             4    7     1      -0.1209764956E-01       4    7    1        -0.6321153483E+00      0.1507062192E+01
          0                 4           2             4    7     1      -0.8826993373E-02       5    8    1        -0.4636353390E+00      0.1132722228E+01
          0                 5           2             4    7     1      -0.7339946132E-02       4    7    1        -0.3831710556E+00      0.9381429804E+00
          0                 6           2             4    7     1      -0.6047876235E-02       5    8    1        -0.3157343429E+00      0.7733698042E+00
          0                 7           2             4    7     1      -0.5017682015E-02       4    7    1        -0.2619363500E+00      0.6415968971E+00
          0                 8           2             4    7     1      -0.4178331609E-02       4    7    1        -0.2181199539E+00      0.5342752531E+00
          0                 9           2             4    7     1      -0.3490324942E-02       4    7    1        -0.1822041854E+00      0.4463007851E+00
          0                10           2             4    7     1      -0.2922938171E-02       4    7    1        -0.1525850902E+00      0.3737502241E+00
                                                   Max.-Head-Change                         Max.-Flux-Residual
  Residual-Control   Outer-Iter.   Inner-Iter.     Column Row Layer    Maximum-Head-Change  Column Row Layer    Maximum-Flux-Residual          L2-NORM 
          0                11           2             4    7     1      -0.2452754163E-02       4    7    1        -0.1280402396E+00      0.3136287365E+00
          0                12           2             4    7     1      -0.2061653763E-02       4    7    1        -0.1076237639E+00      0.2636195158E+00
          0                13           2             4    7     1      -0.1735281142E-02       4    7    1        -0.9058625027E-01      0.2218869055E+00
          0                14           2             4    7     1      -0.1462247299E-02       4    7    1        -0.7633316245E-01      0.1869746175E+00
          0                15           2             4    7     1      -0.1233351081E-02       4    7    1        -0.6438417568E-01      0.1577061191E+00
          0                16           2             4    7     1      -0.1041090761E-02       4    7    1        -0.5434767971E-01      0.1331221790E+00
          0                17           2             4    7     1      -0.8793657658E-03       4    7    1        -0.4590520852E-01      0.1124427296E+00
          0                18           2             4    7     1      -0.7431776805E-03       4    7    1        -0.3879583149E-01      0.9502863339E-01
          0                19           2             4    7     1      -0.6283861080E-03       4    7    1        -0.3280340896E-01      0.8035046635E-01
          0                20           2             4    7     1      -0.5315138681E-03       4    7    1        -0.2774642284E-01      0.6796360803E-01
                                                   Max.-Head-Change                         Max.-Flux-Residual
  Residual-Control   Outer-Iter.   Inner-Iter.     Column Row Layer    Maximum-Head-Change  Column Row Layer    Maximum-Flux-Residual          L2-NORM 
          0                21           2             4    7     1      -0.4497481992E-03       4    7    1        -0.2347803959E-01      0.5750839674E-01
          0                22           2             4    7     1      -0.3806300810E-03       4    7    1        -0.1986989183E-01      0.4867040216E-01
          0                23           2             4    7     1      -0.3222314458E-03       4    7    1        -0.1682132933E-01      0.4120308634E-01
          0                24           2             4    7     1      -0.2728451600E-03       4    7    1        -0.1424323524E-01      0.3488816148E-01
          0                25           2             4    7     1      -0.2310708334E-03       4    7    1        -0.1206250545E-01      0.2954656249E-01
          0                26           2             4    7     1      -0.1957148925E-03       4    7    1        -0.1021683229E-01      0.2502566952E-01
          0                27           2             4    7     1      -0.1657823071E-03       4    7    1        -0.8654272572E-02      0.2119825007E-01
          0                28           2             4    7     1      -0.1404591475E-03       4    7    1        -0.7332337001E-02      0.1796022866E-01
          0                29           2             4    7     1      -0.1189864476E-03       4    7    1        -0.6211405574E-02      0.1521455774E-01
          0                30           1             4    7     1      -0.1008189720E-03       4    7    1        -0.5263015496E-02      0.1289151910E-01
          0                31           1             4    7     1      -0.8544491212E-04       4    7    1        -0.4460449190E-02      0.1092567032E-01

    ------------------------------------------------
       NWT REQUIRED           31 OUTER ITERATIONS 
       AND A TOTAL OF         60 INNER ITERATIONS.
    ------------------------------------------------

 NO OUTPUT CONTROL FOR STRESS PERIOD   44   TIME STEP   19
 
 SOLVING FOR HEAD 
                                                   Max.-Head-Change                         Max.-Flux-Residual
  Residual-Control   Outer-Iter.   Inner-Iter.     Column Row Layer    Maximum-Head-Change  Column Row Layer    Maximum-Flux-Residual          L2-NORM 
          0                 1           2             4    7     1      -0.1256538577E+00       4    7    1        -0.6615706059E+01      0.1389846866E+02
          0                 2           2             5    8     1      -0.8046925419E-02       5    8    1        -0.4424582269E+00      0.1058779420E+01
          0                 3           2             4    7     1      -0.1207680126E-01       4    7    1        -0.6310294678E+00      0.1503992040E+01
          0                 4           2             4    7     1      -0.8829122339E-02       5    8    1        -0.4637711453E+00      0.1133032409E+01
          0                 5           2             4    7     1      -0.7339769392E-02       4    7    1        -0.3831602135E+00      0.9381120118E+00
          0                 6           2             4    7     1      -0.6047923731E-02       5    8    1        -0.3157356974E+00      0.7733728985E+00
          0                 7           2             4    7     1      -0.5017701989E-02       4    7    1        -0.2619362415E+00      0.6415965868E+00
          0                 8           2             4    7     1      -0.4178350191E-02       4    7    1        -0.2181199646E+00      0.5342752834E+00
          0                 9           2             4    7     1      -0.3490340270E-02       4    7    1        -0.1822041842E+00      0.4463007815E+00
          0                10           2             4    7     1      -0.2922951026E-02       4    7    1        -0.1525850903E+00      0.3737502240E+00
                                                   Max.-Head-Change                         Max.-Flux-Residual
  Residual-Control   Outer-Iter.   Inner-Iter.     Column Row Layer    Maximum-Head-Change  Column Row Layer    Maximum-Flux-Residual          L2-NORM 
          0                11           2             4    7     1      -0.2452764948E-02       4    7    1        -0.1280402395E+00      0.3136287361E+00
          0                12           2             4    7     1      -0.2061662829E-02       4    7    1        -0.1076237638E+00      0.2636195154E+00
          0                13           2             4    7     1      -0.1735288773E-02       4    7    1        -0.9058625021E-01      0.2218869052E+00
          0                14           2             4    7     1      -0.1462253729E-02       4    7    1        -0.7633316239E-01      0.1869746173E+00
          0                15           2             4    7     1      -0.1233356505E-02       4    7    1        -0.6438417565E-01      0.1577061189E+00
          0                16           2             4    7     1      -0.1041095338E-02       4    7    1        -0.5434767966E-01      0.1331221788E+00
          0                17           2             4    7     1      -0.8793696325E-03       4    7    1        -0.4590520850E-01      0.1124427294E+00
          0                18           2             4    7     1      -0.7431809486E-03       4    7    1        -0.3879583149E-01      0.9502863327E-01
          0                19           2             4    7     1      -0.6283888720E-03       4    7    1        -0.3280340896E-01      0.8035046626E-01
          0                20           2             4    7     1      -0.5315162049E-03       4    7    1        -0.2774642280E-01      0.6796360793E-01
                                                   Max.-Head-Change                         Max.-Flux-Residual
  Residual-Control   Outer-Iter.   Inner-Iter.     Column Row Layer    Maximum-Head-Change  Column Row Layer    Maximum-Flux-Residual          L2-NORM 
          0                21           2             4    7     1      -0.4497501770E-03       4    7    1        -0.2347803958E-01      0.5750839667E-01
          0                22           2             4    7     1      -0.3806317547E-03       4    7    1        -0.1986989182E-01      0.4867040209E-01
          0                23           2             4    7     1      -0.3222328628E-03       4    7    1        -0.1682132934E-01      0.4120308631E-01
          0                24           2             4    7     1      -0.2728463599E-03       4    7    1        -0.1424323524E-01      0.3488816146E-01
          0                25           2             4    7     1      -0.2310718496E-03       4    7    1        -0.1206250545E-01      0.2954656244E-01
          0                26           2             4    7     1      -0.1957157532E-03       4    7    1        -0.1021683229E-01      0.2502566948E-01
          0                27           2             4    7     1      -0.1657830363E-03       4    7    1        -0.8654272568E-02      0.2119825006E-01
          0                28           2             4    7     1      -0.1404597649E-03       4    7    1        -0.7332336982E-02      0.1796022863E-01
          0                29           2             4    7     1      -0.1189869710E-03       4    7    1        -0.6211405574E-02      0.1521455771E-01
          0                30           1             4    7     1      -0.1008194153E-03       4    7    1        -0.5263015491E-02      0.1289151906E-01
          0                31           1             4    7     1      -0.8544528779E-04       4    7    1        -0.4460449190E-02      0.1092566925E-01

    ------------------------------------------------
       NWT REQUIRED           31 OUTER ITERATIONS 
       AND A TOTAL OF         60 INNER ITERATIONS.
    ------------------------------------------------

 NO OUTPUT CONTROL FOR STRESS PERIOD   44   TIME STEP   20
 
 SOLVING FOR HEAD 
                                                   Max.-Head-Change                         Max.-Flux-Residual
  Residual-Control   Outer-Iter.   Inner-Iter.     Column Row Layer    Maximum-Head-Change  Column Row Layer    Maximum-Flux-Residual          L2-NORM 
          0                 1           2             4    7     1      -0.1235687463E+00       4    7    1        -0.6507144633E+01      0.1371809531E+02
          0                 2           2             5    8     1      -0.8288885268E-02       5    8    1        -0.4555660120E+00      0.1091250097E+01
          0                 3           2             4    7     1      -0.1205599854E-01       4    7    1        -0.6299447412E+00      0.1501004464E+01
          0                 4           2             4    7     1      -0.8831246978E-02       5    8    1        -0.4639013250E+00      0.1133334228E+01
          0                 5           2             4    7     1      -0.7339593277E-02       4    7    1        -0.3831493826E+00      0.9380818762E+00
          0                 6           2             4    7     1      -0.6047971322E-02       5    8    1        -0.3157369959E+00      0.7733759096E+00
          0                 7           2             4    7     1      -0.5017722084E-02       4    7    1        -0.2619361331E+00      0.6415962849E+00
          0                 8           2             4    7     1      -0.4178368870E-02       4    7    1        -0.2181199753E+00      0.5342753129E+00
          0                 9           2             4    7     1      -0.3490355678E-02       4    7    1        -0.1822041830E+00      0.4463007780E+00
          0                10           2             4    7     1      -0.2922963949E-02       4    7    1        -0.1525850903E+00      0.3737502238E+00
                                                   Max.-Head-Change                         Max.-Flux-Residual
  Residual-Control   Outer-Iter.   Inner-Iter.     Column Row Layer    Maximum-Head-Change  Column Row Layer    Maximum-Flux-Residual          L2-NORM 
          0                11           2             4    7     1      -0.2452775790E-02       4    7    1        -0.1280402395E+00      0.3136287357E+00
          0                12           2             4    7     1      -0.2061671943E-02       4    7    1        -0.1076237637E+00      0.2636195151E+00
          0                13           2             4    7     1      -0.1735296444E-02       4    7    1        -0.9058625016E-01      0.2218869049E+00
          0                14           2             4    7     1      -0.1462260193E-02       4    7    1        -0.7633316237E-01      0.1869746171E+00
          0                15           2             4    7     1      -0.1233361957E-02       4    7    1        -0.6438417561E-01      0.1577061187E+00
          0                16           2             4    7     1      -0.1041099940E-02       4    7    1        -0.5434767963E-01      0.1331221786E+00
          0                17           2             4    7     1      -0.8793735198E-03       4    7    1        -0.4590520848E-01      0.1124427293E+00
          0                18           2             4    7     1      -0.7431842337E-03       4    7    1        -0.3879583146E-01      0.9502863314E-01
          0                19           2             4    7     1      -0.6283916495E-03       4    7    1        -0.3280340894E-01      0.8035046618E-01
          0                20           2             4    7     1      -0.5315185547E-03       4    7    1        -0.2774642280E-01      0.6796360784E-01
                                                   Max.-Head-Change                         Max.-Flux-Residual
  Residual-Control   Outer-Iter.   Inner-Iter.     Column Row Layer    Maximum-Head-Change  Column Row Layer    Maximum-Flux-Residual          L2-NORM 
          0                21           2             4    7     1      -0.4497521650E-03       4    7    1        -0.2347803957E-01      0.5750839661E-01
          0                22           2             4    7     1      -0.3806334373E-03       4    7    1        -0.1986989181E-01      0.4867040203E-01
          0                23           2             4    7     1      -0.3222342869E-03       4    7    1        -0.1682132932E-01      0.4120308625E-01
          0                24           2             4    7     1      -0.2728475665E-03       4    7    1        -0.1424323524E-01      0.3488816143E-01
          0                25           2             4    7     1      -0.2310728708E-03       4    7    1        -0.1206250542E-01      0.2954656239E-01
          0                26           2             4    7     1      -0.1957166184E-03       4    7    1        -0.1021683228E-01      0.2502566945E-01
          0                27           2             4    7     1      -0.1657837692E-03       4    7    1        -0.8654272556E-02      0.2119825002E-01
          0                28           2             4    7     1      -0.1404603854E-03       4    7    1        -0.7332336971E-02      0.1796022860E-01
          0                29           2             4    7     1      -0.1189874970E-03       4    7    1        -0.6211405584E-02      0.1521455771E-01
          0                30           1             4    7     1      -0.1008198614E-03       4    7    1        -0.5263015501E-02      0.1289151907E-01
          0                31           1             4    7     1      -0.8544566546E-04       4    7    1        -0.4460449175E-02      0.1092566920E-01

    ------------------------------------------------
       NWT REQUIRED           31 OUTER ITERATIONS 
       AND A TOTAL OF         60 INNER ITERATIONS.
    ------------------------------------------------

 NO OUTPUT CONTROL FOR STRESS PERIOD   44   TIME STEP   21
 
 SOLVING FOR HEAD 
                                                   Max.-Head-Change                         Max.-Flux-Residual
  Residual-Control   Outer-Iter.   Inner-Iter.     Column Row Layer    Maximum-Head-Change  Column Row Layer    Maximum-Flux-Residual          L2-NORM 
          0                 1           2             4    7     1      -0.1214901038E+00       4    7    1        -0.6398811127E+01      0.1354601149E+02
          0                 2           2             5    8     1      -0.8510063987E-02       5    8    1        -0.4674217292E+00      0.1122547096E+01
          0                 3           2             4    7     1      -0.1203524563E-01       4    7    1        -0.6288622735E+00      0.1498095395E+01
          0                 4           2             4    7     1      -0.8833368324E-02       5    8    1        -0.4640190402E+00      0.1133628005E+01
          0                 5           2             4    7     1      -0.7339418872E-02       4    7    1        -0.3831385738E+00      0.9380525408E+00
          0                 6           2             4    7     1      -0.6048019881E-02       5    8    1        -0.3157381701E+00      0.7733788410E+00
          0                 7           2             4    7     1      -0.5017743027E-02       4    7    1        -0.2619360249E+00      0.6415959912E+00
          0                 8           2             4    7     1      -0.4178388250E-02       4    7    1        -0.2181199860E+00      0.5342753417E+00
          0                 9           2             4    7     1      -0.3490371673E-02       4    7    1        -0.1822041819E+00      0.4463007746E+00
          0                10           2             4    7     1      -0.2922977363E-02       4    7    1        -0.1525850903E+00      0.3737502238E+00
                                                   Max.-Head-Change                         Max.-Flux-Residual
  Residual-Control   Outer-Iter.   Inner-Iter.     Column Row Layer    Maximum-Head-Change  Column Row Layer    Maximum-Flux-Residual          L2-NORM 
          0                11           2             4    7     1      -0.2452787045E-02       4    7    1        -0.1280402394E+00      0.3136287354E+00
          0                12           2             4    7     1      -0.2061681402E-02       4    7    1        -0.1076237637E+00      0.2636195149E+00
          0                13           2             4    7     1      -0.1735304406E-02       4    7    1        -0.9058625014E-01      0.2218869048E+00
          0                14           2             4    7     1      -0.1462266902E-02       4    7    1        -0.7633316231E-01      0.1869746169E+00
          0                15           2             4    7     1      -0.1233367616E-02       4    7    1        -0.6438417558E-01      0.1577061186E+00
          0                16           2             4    7     1      -0.1041104718E-02       4    7    1        -0.5434767962E-01      0.1331221785E+00
          0                17           2             4    7     1      -0.8793775547E-03       4    7    1        -0.4590520847E-01      0.1124427292E+00
          0                18           2             4    7     1      -0.7431876441E-03       4    7    1        -0.3879583146E-01      0.9502863306E-01
          0                19           2             4    7     1      -0.6283945332E-03       4    7    1        -0.3280340893E-01      0.8035046609E-01
          0                20           2             4    7     1      -0.5315209932E-03       4    7    1        -0.2774642277E-01      0.6796360781E-01
                                                   Max.-Head-Change                         Max.-Flux-Residual
  Residual-Control   Outer-Iter.   Inner-Iter.     Column Row Layer    Maximum-Head-Change  Column Row Layer    Maximum-Flux-Residual          L2-NORM 
          0                21           2             4    7     1      -0.4497542286E-03       4    7    1        -0.2347803956E-01      0.5750839655E-01
          0                22           2             4    7     1      -0.3806351838E-03       4    7    1        -0.1986989181E-01      0.4867040200E-01
          0                23           2             4    7     1      -0.3222357659E-03       4    7    1        -0.1682132933E-01      0.4120308622E-01
          0                24           2             4    7     1      -0.2728488180E-03       4    7    1        -0.1424323522E-01      0.3488816138E-01
          0                25           2             4    7     1      -0.2310739314E-03       4    7    1        -0.1206250543E-01      0.2954656238E-01
          0                26           2             4    7     1      -0.1957175165E-03       4    7    1        -0.1021683227E-01      0.2502566944E-01
          0                27           2             4    7     1      -0.1657845295E-03       4    7    1        -0.8654272541E-02      0.2119824999E-01
          0                28           2             4    7     1      -0.1404610306E-03       4    7    1        -0.7332336982E-02      0.1796022859E-01
          0                29           2             4    7     1      -0.1189880426E-03       4    7    1        -0.6211405555E-02      0.1521455766E-01
          0                30           1             4    7     1      -0.1008203238E-03       4    7    1        -0.5263015494E-02      0.1289151906E-01
          0                31           1             4    7     1      -0.8544605738E-04       4    7    1        -0.4460449176E-02      0.1092566918E-01

    ------------------------------------------------
       NWT REQUIRED           31 OUTER ITERATIONS 
       AND A TOTAL OF         60 INNER ITERATIONS.
    ------------------------------------------------

 NO OUTPUT CONTROL FOR STRESS PERIOD   44   TIME STEP   22
 
 SOLVING FOR HEAD 
                                                   Max.-Head-Change                         Max.-Flux-Residual
  Residual-Control   Outer-Iter.   Inner-Iter.     Column Row Layer    Maximum-Head-Change  Column Row Layer    Maximum-Flux-Residual          L2-NORM 
          0                 1           2             4    7     1      -0.1194207229E+00       4    7    1        -0.6290837197E+01      0.1338185328E+02
          0                 2           2             5    8     1      -0.8747069114E-02       5    8    1        -0.4802678944E+00      0.1153029394E+01
          0                 3           2             4    7     1      -0.1201461746E-01       4    7    1        -0.6277833818E+00      0.1495264117E+01
          0                 4           2             4    7     1      -0.8835475818E-02       5    8    1        -0.4641467200E+00      0.1133914073E+01
          0                 5           2             4    7     1      -0.7339244725E-02       4    7    1        -0.3831278004E+00      0.9380239759E+00
          0                 6           2             4    7     1      -0.6048067485E-02       5    8    1        -0.3157394441E+00      0.7733816956E+00
          0                 7           2             4    7     1      -0.5017763294E-02       4    7    1        -0.2619359171E+00      0.6415957053E+00
          0                 8           2             4    7     1      -0.4178407057E-02       4    7    1        -0.2181199967E+00      0.5342753699E+00
          0                 9           2             4    7     1      -0.3490387189E-02       4    7    1        -0.1822041807E+00      0.4463007715E+00
          0                10           2             4    7     1      -0.2922990376E-02       4    7    1        -0.1525850904E+00      0.3737502238E+00
                                                   Max.-Head-Change                         Max.-Flux-Residual
  Residual-Control   Outer-Iter.   Inner-Iter.     Column Row Layer    Maximum-Head-Change  Column Row Layer    Maximum-Flux-Residual          L2-NORM 
          0                11           2             4    7     1      -0.2452797963E-02       4    7    1        -0.1280402393E+00      0.3136287352E+00
          0                12           2             4    7     1      -0.2061690579E-02       4    7    1        -0.1076237636E+00      0.2636195147E+00
          0                13           2             4    7     1      -0.1735312131E-02       4    7    1        -0.9058625011E-01      0.2218869046E+00
          0                14           2             4    7     1      -0.1462273411E-02       4    7    1        -0.7633316230E-01      0.1869746168E+00
          0                15           2             4    7     1      -0.1233373107E-02       4    7    1        -0.6438417557E-01      0.1577061185E+00
          0                16           2             4    7     1      -0.1041109352E-02       4    7    1        -0.5434767959E-01      0.1331221784E+00
          0                17           2             4    7     1      -0.8793814692E-03       4    7    1        -0.4590520843E-01      0.1124427291E+00
          0                18           2             4    7     1      -0.7431909524E-03       4    7    1        -0.3879583143E-01      0.9502863301E-01
          0                19           2             4    7     1      -0.6283973298E-03       4    7    1        -0.3280340889E-01      0.8035046601E-01
          0                20           2             4    7     1      -0.5315233593E-03       4    7    1        -0.2774642276E-01      0.6796360775E-01
                                                   Max.-Head-Change                         Max.-Flux-Residual
  Residual-Control   Outer-Iter.   Inner-Iter.     Column Row Layer    Maximum-Head-Change  Column Row Layer    Maximum-Flux-Residual          L2-NORM 
          0                21           2             4    7     1      -0.4497562306E-03       4    7    1        -0.2347803955E-01      0.5750839653E-01
          0                22           2             4    7     1      -0.3806368782E-03       4    7    1        -0.1986989180E-01      0.4867040195E-01
          0                23           2             4    7     1      -0.3222372001E-03       4    7    1        -0.1682132932E-01      0.4120308619E-01
          0                24           2             4    7     1      -0.2728500329E-03       4    7    1        -0.1424323523E-01      0.3488816135E-01
          0                25           2             4    7     1      -0.2310749596E-03       4    7    1        -0.1206250542E-01      0.2954656236E-01
          0                26           2             4    7     1      -0.1957183880E-03       4    7    1        -0.1021683228E-01      0.2502566942E-01
          0                27           2             4    7     1      -0.1657852674E-03       4    7    1        -0.8654272538E-02      0.2119824998E-01
          0                28           2             4    7     1      -0.1404616556E-03       4    7    1        -0.7332336982E-02      0.1796022858E-01
          0                29           2             4    7     1      -0.1189885726E-03       4    7    1        -0.6211405567E-02      0.1521455766E-01
          0                30           1             4    7     1      -0.1008207724E-03       4    7    1        -0.5263015486E-02      0.1289151902E-01
          0                31           1             4    7     1      -0.8544643793E-04       4    7    1        -0.4460449177E-02      0.1092566918E-01

    ------------------------------------------------
       NWT REQUIRED           31 OUTER ITERATIONS 
       AND A TOTAL OF         60 INNER ITERATIONS.
    ------------------------------------------------

 NO OUTPUT CONTROL FOR STRESS PERIOD   44   TIME STEP   23
 
 SOLVING FOR HEAD 
                                                   Max.-Head-Change                         Max.-Flux-Residual
  Residual-Control   Outer-Iter.   Inner-Iter.     Column Row Layer    Maximum-Head-Change  Column Row Layer    Maximum-Flux-Residual          L2-NORM 
          0                 1           2             4    7     1      -0.1173616393E+00       4    7    1        -0.6183318530E+01      0.1322516498E+02
          0                 2           2             5    8     1      -0.8963267442E-02       5    8    1        -0.4919569204E+00      0.1182615672E+01
          0                 3           2             4    7     1      -0.1199407583E-01       4    7    1        -0.6267090222E+00      0.1492506175E+01
          0                 4           2             4    7     1      -0.8837574736E-02       5    8    1        -0.4642628768E+00      0.1134192672E+01
          0                 5           2             4    7     1      -0.7339071501E-02       4    7    1        -0.3831170718E+00      0.9379961560E+00
          0                 6           2             4    7     1      -0.6048115050E-02       5    8    1        -0.3157406032E+00      0.7733844769E+00
          0                 7           2             4    7     1      -0.5017783610E-02       4    7    1        -0.2619358097E+00      0.6415954276E+00
          0                 8           2             4    7     1      -0.4178425895E-02       4    7    1        -0.2181200074E+00      0.5342753980E+00
          0                 9           2             4    7     1      -0.3490402732E-02       4    7    1        -0.1822041796E+00      0.4463007690E+00
          0                10           2             4    7     1      -0.2923003413E-02       4    7    1        -0.1525850904E+00      0.3737502243E+00
                                                   Max.-Head-Change                         Max.-Flux-Residual
  Residual-Control   Outer-Iter.   Inner-Iter.     Column Row Layer    Maximum-Head-Change  Column Row Layer    Maximum-Flux-Residual          L2-NORM 
          0                11           2             4    7     1      -0.2452808900E-02       4    7    1        -0.1280402393E+00      0.3136287353E+00
          0                12           2             4    7     1      -0.2061699773E-02       4    7    1        -0.1076237636E+00      0.2636195149E+00
          0                13           2             4    7     1      -0.1735319869E-02       4    7    1        -0.9058625007E-01      0.2218869047E+00
          0                14           2             4    7     1      -0.1462279932E-02       4    7    1        -0.7633316228E-01      0.1869746169E+00
          0                15           2             4    7     1      -0.1233378606E-02       4    7    1        -0.6438417553E-01      0.1577061186E+00
          0                16           2             4    7     1      -0.1041113995E-02       4    7    1        -0.5434767957E-01      0.1331221785E+00
          0                17           2             4    7     1      -0.8793853908E-03       4    7    1        -0.4590520842E-01      0.1124427292E+00
          0                18           2             4    7     1      -0.7431942656E-03       4    7    1        -0.3879583140E-01      0.9502863306E-01
          0                19           2             4    7     1      -0.6284001325E-03       4    7    1        -0.3280340892E-01      0.8035046609E-01
          0                20           2             4    7     1      -0.5315257293E-03       4    7    1        -0.2774642276E-01      0.6796360779E-01
                                                   Max.-Head-Change                         Max.-Flux-Residual
  Residual-Control   Outer-Iter.   Inner-Iter.     Column Row Layer    Maximum-Head-Change  Column Row Layer    Maximum-Flux-Residual          L2-NORM 
          0                21           2             4    7     1      -0.4497582363E-03       4    7    1        -0.2347803955E-01      0.5750839657E-01
          0                22           2             4    7     1      -0.3806385756E-03       4    7    1        -0.1986989180E-01      0.4867040199E-01
          0                23           2             4    7     1      -0.3222386373E-03       4    7    1        -0.1682132932E-01      0.4120308623E-01
          0                24           2             4    7     1      -0.2728512493E-03       4    7    1        -0.1424323521E-01      0.3488816137E-01
          0                25           2             4    7     1      -0.2310759903E-03       4    7    1        -0.1206250542E-01      0.2954656238E-01
          0                26           2             4    7     1      -0.1957192605E-03       4    7    1        -0.1021683227E-01      0.2502566943E-01
          0                27           2             4    7     1      -0.1657860067E-03       4    7    1        -0.8654272537E-02      0.2119825000E-01
          0                28           2             4    7     1      -0.1404622821E-03       4    7    1        -0.7332336987E-02      0.1796022859E-01
          0                29           2             4    7     1      -0.1189891034E-03       4    7    1        -0.6211405562E-02      0.1521455767E-01
          0                30           1             4    7     1      -0.1008212216E-03       4    7    1        -0.5263015461E-02      0.1289151904E-01
          0                31           1             4    7     1      -0.8544681872E-04       4    7    1        -0.4460449179E-02      0.1092566918E-01

    ------------------------------------------------
       NWT REQUIRED           31 OUTER ITERATIONS 
       AND A TOTAL OF         60 INNER ITERATIONS.
    ------------------------------------------------

 NO OUTPUT CONTROL FOR STRESS PERIOD   44   TIME STEP   24
 
 SOLVING FOR HEAD 
                                                   Max.-Head-Change                         Max.-Flux-Residual
  Residual-Control   Outer-Iter.   Inner-Iter.     Column Row Layer    Maximum-Head-Change  Column Row Layer    Maximum-Flux-Residual          L2-NORM 
          0                 1           2             4    7     1      -0.1153145499E+00       4    7    1        -0.6076342664E+01      0.1307537295E+02
          0                 2           2             5    8     1      -0.9171209505E-02       5    8    1        -0.5031902975E+00      0.1210914202E+01
          0                 3           2             4    7     1      -0.1197365375E-01       4    7    1        -0.6256400701E+00      0.1489817033E+01
          0                 4           2             4    7     1      -0.8839661769E-02       5    8    1        -0.4643745288E+00      0.1134464181E+01
          0                 5           2             4    7     1      -0.7338899522E-02       4    7    1        -0.3831063969E+00      0.9379690397E+00
          0                 6           2             4    7     1      -0.6048162537E-02       5    8    1        -0.3157417175E+00      0.7733871871E+00
          0                 7           2             4    7     1      -0.5017803973E-02       4    7    1        -0.2619357029E+00      0.6415951564E+00
          0                 8           2             4    7     1      -0.4178444761E-02       4    7    1        -0.2181200179E+00      0.5342754249E+00
          0                 9           2             4    7     1      -0.3490418301E-02       4    7    1        -0.1822041784E+00      0.4463007661E+00
          0                10           2             4    7     1      -0.2923016469E-02       4    7    1        -0.1525850905E+00      0.3737502245E+00
                                                   Max.-Head-Change                         Max.-Flux-Residual
  Residual-Control   Outer-Iter.   Inner-Iter.     Column Row Layer    Maximum-Head-Change  Column Row Layer    Maximum-Flux-Residual          L2-NORM 
          0                11           2             4    7     1      -0.2452819854E-02       4    7    1        -0.1280402392E+00      0.3136287352E+00
          0                12           2             4    7     1      -0.2061708981E-02       4    7    1        -0.1076237636E+00      0.2636195148E+00
          0                13           2             4    7     1      -0.1735327619E-02       4    7    1        -0.9058625004E-01      0.2218869047E+00
          0                14           2             4    7     1      -0.1462286463E-02       4    7    1        -0.7633316224E-01      0.1869746168E+00
          0                15           2             4    7     1      -0.1233384114E-02       4    7    1        -0.6438417550E-01      0.1577061185E+00
          0                16           2             4    7     1      -0.1041118645E-02       4    7    1        -0.5434767956E-01      0.1331221784E+00
          0                17           2             4    7     1      -0.8793893180E-03       4    7    1        -0.4590520839E-01      0.1124427291E+00
          0                18           2             4    7     1      -0.7431975852E-03       4    7    1        -0.3879583139E-01      0.9502863302E-01
          0                19           2             4    7     1      -0.6284029389E-03       4    7    1        -0.3280340889E-01      0.8035046606E-01
          0                20           2             4    7     1      -0.5315281033E-03       4    7    1        -0.2774642274E-01      0.6796360777E-01
                                                   Max.-Head-Change                         Max.-Flux-Residual
  Residual-Control   Outer-Iter.   Inner-Iter.     Column Row Layer    Maximum-Head-Change  Column Row Layer    Maximum-Flux-Residual          L2-NORM 
          0                21           2             4    7     1      -0.4497602449E-03       4    7    1        -0.2347803953E-01      0.5750839655E-01
          0                22           2             4    7     1      -0.3806402758E-03       4    7    1        -0.1986989179E-01      0.4867040197E-01
          0                23           2             4    7     1      -0.3222400756E-03       4    7    1        -0.1682132929E-01      0.4120308621E-01
          0                24           2             4    7     1      -0.2728524684E-03       4    7    1        -0.1424323523E-01      0.3488816137E-01
          0                25           2             4    7     1      -0.2310770223E-03       4    7    1        -0.1206250541E-01      0.2954656237E-01
          0                26           2             4    7     1      -0.1957201346E-03       4    7    1        -0.1021683227E-01      0.2502566943E-01
          0                27           2             4    7     1      -0.1657867472E-03       4    7    1        -0.8654272540E-02      0.2119824999E-01
          0                28           2             4    7     1      -0.1404629094E-03       4    7    1        -0.7332336978E-02      0.1796022858E-01
          0                29           2             4    7     1      -0.1189896346E-03       4    7    1        -0.6211405561E-02      0.1521455767E-01
          0                30           1             4    7     1      -0.1008216724E-03       4    7    1        -0.5263015486E-02      0.1289151904E-01
          0                31           1             4    7     1      -0.8544720039E-04       4    7    1        -0.4460449175E-02      0.1092566917E-01

    ------------------------------------------------
       NWT REQUIRED           31 OUTER ITERATIONS 
       AND A TOTAL OF         60 INNER ITERATIONS.
    ------------------------------------------------

 NO OUTPUT CONTROL FOR STRESS PERIOD   44   TIME STEP   25
 
 SOLVING FOR HEAD 
                                                   Max.-Head-Change                         Max.-Flux-Residual
  Residual-Control   Outer-Iter.   Inner-Iter.     Column Row Layer    Maximum-Head-Change  Column Row Layer    Maximum-Flux-Residual          L2-NORM 
          0                 1           2             4    7     1      -0.1132809857E+00       4    7    1        -0.5969996467E+01      0.1293213502E+02
          0                 2           2             5    8     1      -0.9370984930E-02       5    8    1        -0.5139940460E+00      0.1238292768E+01
          0                 3           2             4    7     1      -0.1195113345E-01       4    7    1        -0.6244172575E+00      0.1487194777E+01
          0                 4           2             4    7     1      -0.8842145790E-02       5    8    1        -0.4644819284E+00      0.1134728757E+01
          0                 5           2             4    7     1      -0.7338841188E-02       4    7    1        -0.3830941831E+00      0.9379426127E+00
          0                 6           2             4    7     1      -0.6048325134E-02       5    8    1        -0.3157427894E+00      0.7733898285E+00
          0                 7           2             4    7     1      -0.5017917678E-02       4    7    1        -0.2619355807E+00      0.6415948921E+00
          0                 8           2             4    7     1      -0.4178541572E-02       4    7    1        -0.2181200301E+00      0.5342754512E+00
          0                 9           2             4    7     1      -0.3490498958E-02       4    7    1        -0.1822041772E+00      0.4463007633E+00
          0                10           2             4    7     1      -0.2923084036E-02       4    7    1        -0.1525850906E+00      0.3737502246E+00
                                                   Max.-Head-Change                         Max.-Flux-Residual
  Residual-Control   Outer-Iter.   Inner-Iter.     Column Row Layer    Maximum-Head-Change  Column Row Layer    Maximum-Flux-Residual          L2-NORM 
          0                11           2             4    7     1      -0.2452876551E-02       4    7    1        -0.1280402391E+00      0.3136287351E+00
          0                12           2             4    7     1      -0.2061756637E-02       4    7    1        -0.1076237635E+00      0.2636195147E+00
          0                13           2             4    7     1      -0.1735367731E-02       4    7    1        -0.9058625000E-01      0.2218869046E+00
          0                14           2             4    7     1      -0.1462320263E-02       4    7    1        -0.7633316220E-01      0.1869746168E+00
          0                15           2             4    7     1      -0.1233412624E-02       4    7    1        -0.6438417549E-01      0.1577061185E+00
          0                16           2             4    7     1      -0.1041142709E-02       4    7    1        -0.5434767953E-01      0.1331221784E+00
          0                17           2             4    7     1      -0.8794096450E-03       4    7    1        -0.4590520839E-01      0.1124427291E+00
          0                18           2             4    7     1      -0.7432147636E-03       4    7    1        -0.3879583137E-01      0.9502863301E-01
          0                19           2             4    7     1      -0.6284174642E-03       4    7    1        -0.3280340889E-01      0.8035046606E-01
          0                20           2             4    7     1      -0.5315403899E-03       4    7    1        -0.2774642274E-01      0.6796360776E-01
                                                   Max.-Head-Change                         Max.-Flux-Residual
  Residual-Control   Outer-Iter.   Inner-Iter.     Column Row Layer    Maximum-Head-Change  Column Row Layer    Maximum-Flux-Residual          L2-NORM 
          0                21           2             4    7     1      -0.4497706408E-03       4    7    1        -0.2347803951E-01      0.5750839653E-01
          0                22           2             4    7     1      -0.3806490736E-03       4    7    1        -0.1986989177E-01      0.4867040195E-01
          0                23           2             4    7     1      -0.3222475250E-03       4    7    1        -0.1682132931E-01      0.4120308621E-01
          0                24           2             4    7     1      -0.2728587747E-03       4    7    1        -0.1424323520E-01      0.3488816135E-01
          0                25           2             4    7     1      -0.2310823637E-03       4    7    1        -0.1206250541E-01      0.2954656237E-01
          0                26           2             4    7     1      -0.1957246587E-03       4    7    1        -0.1021683226E-01      0.2502566941E-01
          0                27           2             4    7     1      -0.1657905791E-03       4    7    1        -0.8654272521E-02      0.2119824997E-01
          0                28           2             4    7     1      -0.1404661560E-03       4    7    1        -0.7332336970E-02      0.1796022860E-01
          0                29           2             4    7     1      -0.1189923849E-03       4    7    1        -0.6211405558E-02      0.1521455770E-01
          0                30           1             4    7     1      -0.1008240028E-03       4    7    1        -0.5263015480E-02      0.1289151907E-01
          0                31           1             4    7     1      -0.8544917564E-04       4    7    1        -0.4460449168E-02      0.1092566922E-01

    ------------------------------------------------
       NWT REQUIRED           31 OUTER ITERATIONS 
       AND A TOTAL OF         60 INNER ITERATIONS.
    ------------------------------------------------

 NO OUTPUT CONTROL FOR STRESS PERIOD   44   TIME STEP   26
 
 SOLVING FOR HEAD 
                                                   Max.-Head-Change                         Max.-Flux-Residual
  Residual-Control   Outer-Iter.   Inner-Iter.     Column Row Layer    Maximum-Head-Change  Column Row Layer    Maximum-Flux-Residual          L2-NORM 
          0                 1           2             4    7     1      -0.1113337879E+00       4    7    1        -0.5865698860E+01      0.1279538949E+02
          0                 2           2             5    8     1      -0.9564241670E-02       5    8    1        -0.5243943600E+00      0.1265239576E+01
          0                 3           2             4    7     1      -0.1193414813E-01       4    7    1        -0.6235353281E+00      0.1484641237E+01
          0                 4           2             4    7     1      -0.8843889078E-02       5    8    1        -0.4645853367E+00      0.1134986746E+01
          0                 5           2             4    7     1      -0.7338703524E-02       4    7    1        -0.3830853776E+00      0.9379168472E+00
          0                 6           2             4    7     1      -0.6048369141E-02       5    8    1        -0.3157438217E+00      0.7733924041E+00
          0                 7           2             4    7     1      -0.5017938348E-02       4    7    1        -0.2619354926E+00      0.6415946345E+00
          0                 8           2             4    7     1      -0.4178560374E-02       4    7    1        -0.2181200388E+00      0.5342754769E+00
          0                 9           2             4    7     1      -0.3490514504E-02       4    7    1        -0.1822041762E+00      0.4463007607E+00
          0                10           2             4    7     1      -0.2923097070E-02       4    7    1        -0.1525850906E+00      0.3737502248E+00
                                                   Max.-Head-Change                         Max.-Flux-Residual
  Residual-Control   Outer-Iter.   Inner-Iter.     Column Row Layer    Maximum-Head-Change  Column Row Layer    Maximum-Flux-Residual          L2-NORM 
          0                11           2             4    7     1      -0.2452887487E-02       4    7    1        -0.1280402391E+00      0.3136287350E+00
          0                12           2             4    7     1      -0.2061765830E-02       4    7    1        -0.1076237635E+00      0.2636195147E+00
          0                13           2             4    7     1      -0.1735375468E-02       4    7    1        -0.9058624997E-01      0.2218869046E+00
          0                14           2             4    7     1      -0.1462326783E-02       4    7    1        -0.7633316218E-01      0.1869746168E+00
          0                15           2             4    7     1      -0.1233418124E-02       4    7    1        -0.6438417548E-01      0.1577061189E+00
          0                16           2             4    7     1      -0.1041147351E-02       4    7    1        -0.5434767950E-01      0.1331221788E+00
          0                17           2             4    7     1      -0.8794135660E-03       4    7    1        -0.4590520838E-01      0.1124427291E+00
          0                18           2             4    7     1      -0.7432180777E-03       4    7    1        -0.3879583137E-01      0.9502863298E-01
          0                19           2             4    7     1      -0.6284202661E-03       4    7    1        -0.3280340887E-01      0.8035046604E-01
          0                20           2             4    7     1      -0.5315427597E-03       4    7    1        -0.2774642274E-01      0.6796360773E-01
                                                   Max.-Head-Change                         Max.-Flux-Residual
  Residual-Control   Outer-Iter.   Inner-Iter.     Column Row Layer    Maximum-Head-Change  Column Row Layer    Maximum-Flux-Residual          L2-NORM 
          0                21           2             4    7     1      -0.4497726463E-03       4    7    1        -0.2347803952E-01      0.5750839653E-01
          0                22           2             4    7     1      -0.3806507712E-03       4    7    1        -0.1986989177E-01      0.4867040348E-01
          0                23           2             4    7     1      -0.3222489613E-03       4    7    1        -0.1682132928E-01      0.4120308748E-01
          0                24           2             4    7     1      -0.2728599917E-03       4    7    1        -0.1424323521E-01      0.3488816139E-01
          0                25           2             4    7     1      -0.2310833938E-03       4    7    1        -0.1206250539E-01      0.2954656235E-01
          0                26           2             4    7     1      -0.1957255311E-03       4    7    1        -0.1021683226E-01      0.2502566942E-01
          0                27           2             4    7     1      -0.1657913188E-03       4    7    1        -0.8654272543E-02      0.2119825000E-01
          0                28           2             4    7     1      -0.1404667823E-03       4    7    1        -0.7332336969E-02      0.1796022858E-01
          0                29           2             4    7     1      -0.1189929155E-03       4    7    1        -0.6211405563E-02      0.1521456260E-01
          0                30           1             4    7     1      -0.1008244525E-03       4    7    1        -0.5263015482E-02      0.1289152291E-01
          0                31           1             4    7     1      -0.8544955644E-04       4    7    1        -0.4460449166E-02      0.1092566937E-01

    ------------------------------------------------
       NWT REQUIRED           31 OUTER ITERATIONS 
       AND A TOTAL OF         60 INNER ITERATIONS.
    ------------------------------------------------

 NO OUTPUT CONTROL FOR STRESS PERIOD   44   TIME STEP   27
 
 SOLVING FOR HEAD 
                                                   Max.-Head-Change                         Max.-Flux-Residual
  Residual-Control   Outer-Iter.   Inner-Iter.     Column Row Layer    Maximum-Head-Change  Column Row Layer    Maximum-Flux-Residual          L2-NORM 
          0                 1           2             4    7     1      -0.1093752334E+00       4    7    1        -0.5763268451E+01      0.1266479439E+02
          0                 2           2             5    8     1      -0.9750190408E-02       5    8    1        -0.5344144618E+00      0.1291197054E+01
          0                 3           2             4    7     1      -0.1191461160E-01       4    7    1        -0.6225117664E+00      0.1482149158E+01
          0                 4           2             4    7     1      -0.8845887495E-02       5    8    1        -0.4646849829E+00      0.1135238317E+01
          0                 5           2             4    7     1      -0.7338540356E-02       4    7    1        -0.3830751554E+00      0.9378917190E+00
          0                 6           2             4    7     1      -0.6048415706E-02       5    8    1        -0.3157448165E+00      0.7733949159E+00
          0                 7           2             4    7     1      -0.5017958768E-02       4    7    1        -0.2619353903E+00      0.6415943834E+00
          0                 8           2             4    7     1      -0.4178579206E-02       4    7    1        -0.2181200490E+00      0.5342755020E+00
          0                 9           2             4    7     1      -0.3490530052E-02       4    7    1        -0.1822041751E+00      0.4463007582E+00
          0                10           2             4    7     1      -0.2923110110E-02       4    7    1        -0.1525850906E+00      0.3737502251E+00
                                                   Max.-Head-Change                         Max.-Flux-Residual
  Residual-Control   Outer-Iter.   Inner-Iter.     Column Row Layer    Maximum-Head-Change  Column Row Layer    Maximum-Flux-Residual          L2-NORM 
          0                11           2             4    7     1      -0.2452898426E-02       4    7    1        -0.1280402390E+00      0.3136287350E+00
          0                12           2             4    7     1      -0.2061775025E-02       4    7    1        -0.1076237635E+00      0.2636195147E+00
          0                13           2             4    7     1      -0.1735383208E-02       4    7    1        -0.9058624996E-01      0.2218869046E+00
          0                14           2             4    7     1      -0.1462333305E-02       4    7    1        -0.7633316217E-01      0.1869746168E+00
          0                15           2             4    7     1      -0.1233423624E-02       4    7    1        -0.6438417545E-01      0.1577061184E+00
          0                16           2             4    7     1      -0.1041151995E-02       4    7    1        -0.5434767949E-01      0.1331221784E+00
          0                17           2             4    7     1      -0.8794174881E-03       4    7    1        -0.4590520836E-01      0.1124427291E+00
          0                18           2             4    7     1      -0.7432213925E-03       4    7    1        -0.3879583135E-01      0.9502863300E-01
          0                19           2             4    7     1      -0.6284230685E-03       4    7    1        -0.3280340885E-01      0.8035046602E-01
          0                20           2             4    7     1      -0.5315451303E-03       4    7    1        -0.2774642273E-01      0.6796360775E-01
                                                   Max.-Head-Change                         Max.-Flux-Residual
  Residual-Control   Outer-Iter.   Inner-Iter.     Column Row Layer    Maximum-Head-Change  Column Row Layer    Maximum-Flux-Residual          L2-NORM 
          0                21           2             4    7     1      -0.4497746522E-03       4    7    1        -0.2347803951E-01      0.5750839651E-01
          0                22           2             4    7     1      -0.3806524687E-03       4    7    1        -0.1986989177E-01      0.4867040196E-01
          0                23           2             4    7     1      -0.3222503989E-03       4    7    1        -0.1682132929E-01      0.4120308620E-01
          0                24           2             4    7     1      -0.2728612081E-03       4    7    1        -0.1424323519E-01      0.3488816135E-01
          0                25           2             4    7     1      -0.2310844248E-03       4    7    1        -0.1206250541E-01      0.2954656237E-01
          0                26           2             4    7     1      -0.1957264040E-03       4    7    1        -0.1021683224E-01      0.2502566942E-01
          0                27           2             4    7     1      -0.1657920581E-03       4    7    1        -0.8654272528E-02      0.2119824999E-01
          0                28           2             4    7     1      -0.1404674087E-03       4    7    1        -0.7332336962E-02      0.1796022859E-01
          0                29           2             4    7     1      -0.1189934462E-03       4    7    1        -0.6211405560E-02      0.1521455768E-01
          0                30           1             4    7     1      -0.1008249021E-03       4    7    1        -0.5263015486E-02      0.1289151906E-01
          0                31           1             4    7     1      -0.8544993723E-04       4    7    1        -0.4460449166E-02      0.1092566920E-01

    ------------------------------------------------
       NWT REQUIRED           31 OUTER ITERATIONS 
       AND A TOTAL OF         60 INNER ITERATIONS.
    ------------------------------------------------

 NO OUTPUT CONTROL FOR STRESS PERIOD   44   TIME STEP   28
 
 SOLVING FOR HEAD 
                                                   Max.-Head-Change                         Max.-Flux-Residual
  Residual-Control   Outer-Iter.   Inner-Iter.     Column Row Layer    Maximum-Head-Change  Column Row Layer    Maximum-Flux-Residual          L2-NORM 
          0                 1           2             4    7     1      -0.1074309883E+00       4    7    1        -0.5661520616E+01      0.1253990544E+02
          0                 2           2             5    8     1      -0.9929618604E-02       5    8    1        -0.5440765198E+00      0.1316384441E+01
          0                 3           2             4    7     1      -0.1189521815E-01       4    7    1        -0.6214950108E+00      0.1479717714E+01
          0                 4           2             4    7     1      -0.8847871581E-02       5    8    1        -0.4647810862E+00      0.1135483728E+01
          0                 5           2             4    7     1      -0.7338378604E-02       4    7    1        -0.3830650008E+00      0.9378672050E+00
          0                 6           2             4    7     1      -0.6048462115E-02       5    8    1        -0.3157457760E+00      0.7733973665E+00
          0                 7           2             4    7     1      -0.5017979192E-02       4    7    1        -0.2619352887E+00      0.6415941385E+00
          0                 8           2             4    7     1      -0.4178598027E-02       4    7    1        -0.2181200591E+00      0.5342755266E+00
          0                 9           2             4    7     1      -0.3490545592E-02       4    7    1        -0.1822041741E+00      0.4463007558E+00
          0                10           2             4    7     1      -0.2923123142E-02       4    7    1        -0.1525850907E+00      0.3737502254E+00
                                                   Max.-Head-Change                         Max.-Flux-Residual
  Residual-Control   Outer-Iter.   Inner-Iter.     Column Row Layer    Maximum-Head-Change  Column Row Layer    Maximum-Flux-Residual          L2-NORM 
          0                11           2             4    7     1      -0.2452909361E-02       4    7    1        -0.1280402390E+00      0.3136287350E+00
          0                12           2             4    7     1      -0.2061784216E-02       4    7    1        -0.1076237635E+00      0.2636195147E+00
          0                13           2             4    7     1      -0.1735390944E-02       4    7    1        -0.9058624993E-01      0.2218869046E+00
          0                14           2             4    7     1      -0.1462339823E-02       4    7    1        -0.7633316214E-01      0.1869746168E+00
          0                15           2             4    7     1      -0.1233429123E-02       4    7    1        -0.6438417545E-01      0.1577061185E+00
          0                16           2             4    7     1      -0.1041156636E-02       4    7    1        -0.5434767948E-01      0.1331221784E+00
          0                17           2             4    7     1      -0.8794214086E-03       4    7    1        -0.4590520836E-01      0.1124427291E+00
          0                18           2             4    7     1      -0.7432247053E-03       4    7    1        -0.3879583134E-01      0.9502863301E-01
          0                19           2             4    7     1      -0.6284258704E-03       4    7    1        -0.3280340886E-01      0.8035046604E-01
          0                20           2             4    7     1      -0.5315474995E-03       4    7    1        -0.2774642271E-01      0.6796360775E-01
                                                   Max.-Head-Change                         Max.-Flux-Residual
  Residual-Control   Outer-Iter.   Inner-Iter.     Column Row Layer    Maximum-Head-Change  Column Row Layer    Maximum-Flux-Residual          L2-NORM 
          0                21           2             4    7     1      -0.4497766575E-03       4    7    1        -0.2347803951E-01      0.5750839653E-01
          0                22           2             4    7     1      -0.3806541655E-03       4    7    1        -0.1986989175E-01      0.4867040195E-01
          0                23           2             4    7     1      -0.3222518354E-03       4    7    1        -0.1682132928E-01      0.4120308620E-01
          0                24           2             4    7     1      -0.2728624248E-03       4    7    1        -0.1424323519E-01      0.3488816137E-01
          0                25           2             4    7     1      -0.2310854548E-03       4    7    1        -0.1206250539E-01      0.2954656235E-01
          0                26           2             4    7     1      -0.1957272762E-03       4    7    1        -0.1021683224E-01      0.2502566941E-01
          0                27           2             4    7     1      -0.1657927973E-03       4    7    1        -0.8654272537E-02      0.2119825000E-01
          0                28           2             4    7     1      -0.1404680347E-03       4    7    1        -0.7332336961E-02      0.1796022857E-01
          0                29           2             4    7     1      -0.1189939769E-03       4    7    1        -0.6211405565E-02      0.1521455770E-01
          0                30           1             4    7     1      -0.1008253513E-03       4    7    1        -0.5263015475E-02      0.1289151907E-01
          0                31           1             4    7     1      -0.8545031852E-04       4    7    1        -0.4460449175E-02      0.1092566924E-01

    ------------------------------------------------
       NWT REQUIRED           31 OUTER ITERATIONS 
       AND A TOTAL OF         60 INNER ITERATIONS.
    ------------------------------------------------

 NO OUTPUT CONTROL FOR STRESS PERIOD   44   TIME STEP   29
 
 SOLVING FOR HEAD 
                                                   Max.-Head-Change                         Max.-Flux-Residual
  Residual-Control   Outer-Iter.   Inner-Iter.     Column Row Layer    Maximum-Head-Change  Column Row Layer    Maximum-Flux-Residual          L2-NORM 
          0                 1           2             4    7     1      -0.1055022173E+00       4    7    1        -0.5560522162E+01      0.1242044964E+02
          0                 2           2             5    8     1      -0.1010284316E-01       5    8    1        -0.5533981186E+00      0.1340835879E+01
          0                 3           2             4    7     1      -0.1187597940E-01       4    7    1        -0.6204857292E+00      0.1477344788E+01
          0                 4           2             4    7     1      -0.8849840146E-02       5    8    1        -0.4648738204E+00      0.1135723192E+01
          0                 5           2             4    7     1      -0.7338218362E-02       4    7    1        -0.3830549206E+00      0.9378432837E+00
          0                 6           2             4    7     1      -0.6048508338E-02       5    8    1        -0.3157467021E+00      0.7733997580E+00
          0                 7           2             4    7     1      -0.5017999606E-02       4    7    1        -0.2619351879E+00      0.6415938995E+00
          0                 8           2             4    7     1      -0.4178616826E-02       4    7    1        -0.2181200691E+00      0.5342755506E+00
          0                 9           2             4    7     1      -0.3490561115E-02       4    7    1        -0.1822041730E+00      0.4463007535E+00
          0                10           2             4    7     1      -0.2923136159E-02       4    7    1        -0.1525850908E+00      0.3737502257E+00
                                                   Max.-Head-Change                         Max.-Flux-Residual
  Residual-Control   Outer-Iter.   Inner-Iter.     Column Row Layer    Maximum-Head-Change  Column Row Layer    Maximum-Flux-Residual          L2-NORM 
          0                11           2             4    7     1      -0.2452920282E-02       4    7    1        -0.1280402390E+00      0.3136287351E+00
          0                12           2             4    7     1      -0.2061793396E-02       4    7    1        -0.1076237634E+00      0.2636195148E+00
          0                13           2             4    7     1      -0.1735398670E-02       4    7    1        -0.9058624991E-01      0.2218869047E+00
          0                14           2             4    7     1      -0.1462346335E-02       4    7    1        -0.7633316215E-01      0.1869746169E+00
          0                15           2             4    7     1      -0.1233434615E-02       4    7    1        -0.6438417542E-01      0.1577061185E+00
          0                16           2             4    7     1      -0.1041161272E-02       4    7    1        -0.5434767947E-01      0.1331221784E+00
          0                17           2             4    7     1      -0.8794253240E-03       4    7    1        -0.4590520835E-01      0.1124427291E+00
          0                18           2             4    7     1      -0.7432280147E-03       4    7    1        -0.3879583134E-01      0.9502863303E-01
          0                19           2             4    7     1      -0.6284286683E-03       4    7    1        -0.3280340885E-01      0.8035046608E-01
          0                20           2             4    7     1      -0.5315498666E-03       4    7    1        -0.2774642272E-01      0.6796360776E-01
                                                   Max.-Head-Change                         Max.-Flux-Residual
  Residual-Control   Outer-Iter.   Inner-Iter.     Column Row Layer    Maximum-Head-Change  Column Row Layer    Maximum-Flux-Residual          L2-NORM 
          0                21           2             4    7     1      -0.4497786601E-03       4    7    1        -0.2347803950E-01      0.5750839656E-01
          0                22           2             4    7     1      -0.3806558605E-03       4    7    1        -0.1986989174E-01      0.4867040196E-01
          0                23           2             4    7     1      -0.3222532699E-03       4    7    1        -0.1682132927E-01      0.4120308620E-01
          0                24           2             4    7     1      -0.2728636397E-03       4    7    1        -0.1424323519E-01      0.3488816138E-01
          0                25           2             4    7     1      -0.2310864836E-03       4    7    1        -0.1206250540E-01      0.2954656236E-01
          0                26           2             4    7     1      -0.1957281480E-03       4    7    1        -0.1021683225E-01      0.2502566944E-01
          0                27           2             4    7     1      -0.1657935354E-03       4    7    1        -0.8654272532E-02      0.2119824999E-01
          0                28           2             4    7     1      -0.1404686601E-03       4    7    1        -0.7332336956E-02      0.1796022859E-01
          0                29           2             4    7     1      -0.1189945068E-03       4    7    1        -0.6211405565E-02      0.1521455768E-01
          0                30           1             4    7     1      -0.1008258001E-03       4    7    1        -0.5263015470E-02      0.1289151905E-01
          0                31           1             4    7     1      -0.8545069907E-04       4    7    1        -0.4460449177E-02      0.1092566917E-01

    ------------------------------------------------
       NWT REQUIRED           31 OUTER ITERATIONS 
       AND A TOTAL OF         60 INNER ITERATIONS.
    ------------------------------------------------

 NO OUTPUT CONTROL FOR STRESS PERIOD   44   TIME STEP   30



 STREAM LISTING     PERIOD     44   STEP       30

 LAYER ROW COL. STREAM  RCH.  FLOW INTO     FLOW TO   FLOW OUT OF   OVRLND.     DIRECT     STREAM       STREAM     STREAM     STREAM   STREAMBED  STREAMBED
                SEG.NO.  NO.  STRM. RCH.    AQUIFER    STRM. RCH.    RUNOFF     PRECIP       ET          HEAD       DEPTH      WIDTH   CONDCTNC.   GRADIENT

   1    1    1     1     1    1.9000E+01  2.1427E-01   1.8786E+01  0.000E+00  0.000E+00  0.000E+00  1.09413E+03  1.082E+00  1.166E+01  5.249E-02  1.361E+00
   1    2    2     1     2    1.8786E+01  3.3054E-01   1.8455E+01  0.000E+00  0.000E+00  0.000E+00  1.08914E+03  1.077E+00  1.158E+01  8.107E-02  1.359E+00
   1    3    3     1     3    1.8455E+01  2.8064E-01   1.8175E+01  0.000E+00  0.000E+00  0.000E+00  1.08349E+03  1.072E+00  1.149E+01  6.892E-02  1.357E+00
   1    3    4     1     4    1.8175E+01  2.5740E-01   1.7917E+01  0.000E+00  0.000E+00  0.000E+00  1.07848E+03  1.068E+00  1.140E+01  6.328E-02  1.356E+00
   1    4    5     2     1    1.5917E+01  3.0542E-01   1.5612E+01  0.000E+00  0.000E+00  0.000E+00  1.07285E+03  9.157E-01  1.200E+01  7.800E-02  1.305E+00
   1    5    6     2     2    1.5612E+01  2.3438E-01   1.5377E+01  0.000E+00  0.000E+00  0.000E+00  1.06742E+03  9.063E-01  1.200E+01  6.000E-02  1.302E+00
   1    6    6     2     3    1.5377E+01  2.3388E-01   1.5143E+01  0.000E+00  0.000E+00  0.000E+00  1.06269E+03  8.980E-01  1.200E+01  6.000E-02  1.299E+00
   1    7    6     2     4    1.5143E+01  2.3338E-01   1.4910E+01  0.000E+00  0.000E+00  0.000E+00  1.05797E+03  8.897E-01  1.200E+01  6.000E-02  1.297E+00
   1    8    6     2     5    1.4910E+01  2.3289E-01   1.4677E+01  0.000E+00  0.000E+00  0.000E+00  1.05324E+03  8.814E-01  1.200E+01  6.000E-02  1.294E+00
   1    3    5     3     1    2.0000E+00  2.8252E-01   1.7175E+00  0.000E+00  0.000E+00  0.000E+00  1.07555E+03  1.909E+00  9.636E+00  7.227E-02  1.955E+00
   1    3    6     3     2    1.7175E+00  2.4905E-01   1.4684E+00  0.000E+00  0.000E+00  0.000E+00  1.07264E+03  1.727E+00  8.909E+00  6.682E-02  1.864E+00
   1    3    7     3     3    1.4684E+00  1.9718E-01   1.2712E+00  0.000E+00  0.000E+00  0.000E+00  1.06987E+03  1.555E+00  8.218E+00  5.547E-02  1.777E+00
   1    4    8     3     4    1.2712E+00  2.2567E-01   1.0456E+00  0.000E+00  0.000E+00  0.000E+00  1.06682E+03  1.364E+00  7.455E+00  6.709E-02  1.682E+00
   1    5    8     3     5    1.0456E+00  1.5790E-01   8.8768E-01  0.000E+00  0.000E+00  0.000E+00  1.06362E+03  1.164E+00  6.655E+00  4.991E-02  1.582E+00
   1    6    8     3     6    8.8768E-01  5.5980E-02   8.3170E-01  0.000E+00  0.000E+00  0.000E+00  1.06158E+03  1.036E+00  6.145E+00  1.844E-02  1.518E+00
   1    5   10     4     1    1.0000E+01  9.0919E-02   9.9091E+00  0.000E+00  0.000E+00  0.000E+00  1.07836E+03  6.368E-01  1.000E+01  2.500E-02  1.212E+00
   1    5    9     4     2    9.9091E+00  1.8158E-01   9.7275E+00  0.000E+00  0.000E+00  0.000E+00  1.07154E+03  6.315E-01  1.000E+01  5.000E-02  1.211E+00
   1    6    8     4     3    9.7275E+00  1.2689E-01   9.6006E+00  0.000E+00  0.000E+00  0.000E+00  1.06381E+03  6.256E-01  1.000E+01  3.500E-02  1.209E+00
   1    6    8     5     1    1.0432E+01  2.2686E-01   1.0205E+01  0.000E+00  0.000E+00  0.000E+00  1.05868E+03  6.790E-01  1.542E+01  6.166E-02  1.226E+00
   1    7    7     5     2    1.0205E+01  2.7894E-01   9.9265E+00  0.000E+00  0.000E+00  0.000E+00  1.05417E+03  6.732E-01  1.519E+01  7.594E-02  1.224E+00
   1    8    7     5     3    9.9265E+00  1.9221E-01   9.7343E+00  0.000E+00  0.000E+00  0.000E+00  1.04992E+03  6.676E-01  1.497E+01  5.241E-02  1.223E+00
   1    8    6     5     4    9.7343E+00  1.3577E-01   9.5985E+00  0.000E+00  0.000E+00  0.000E+00  1.04691E+03  6.637E-01  1.482E+01  3.706E-02  1.221E+00
   1    9    6     6     1    2.4276E+01  2.5176E-01   2.4024E+01  0.000E+00  0.000E+00  0.000E+00  1.04392E+03  1.196E+00  1.200E+01  6.000E-02  1.399E+00
   1   10    7     6     2    2.4024E+01  2.5131E-01   2.3773E+01  0.000E+00  0.000E+00  0.000E+00  1.03937E+03  1.188E+00  1.200E+01  6.000E-02  1.396E+00
   1   11    7     6     3    2.3773E+01  2.5086E-01   2.3522E+01  0.000E+00  0.000E+00  0.000E+00  1.03482E+03  1.181E+00  1.200E+01  6.000E-02  1.394E+00
   1   12    7     6     4    2.3522E+01  2.5041E-01   2.3271E+01  0.000E+00  0.000E+00  0.000E+00  1.03026E+03  1.173E+00  1.200E+01  6.000E-02  1.391E+00
   1   13    7     6     5    2.3271E+01  1.1603E-02   2.3260E+01  0.000E+00  0.000E+00  0.000E+00  1.02708E+03  1.169E+00  1.200E+01  2.400E-02  1.612E-01
   1   14    9     7     1    1.5000E+02  1.3745E+00   1.4863E+02  0.000E+00  0.000E+00  0.000E+00  1.03987E+03  2.288E+00  5.529E+01  5.593E-01  8.192E-01
   1   13    8     7     2    1.4863E+02  1.9814E+00   1.4664E+02  0.000E+00  0.000E+00  0.000E+00  1.03478E+03  2.279E+00  5.525E+01  6.147E-01  1.074E+00
   1   13    7     7     3    1.4664E+02  1.7270E+00   1.4492E+02  0.000E+00  0.000E+00  0.000E+00  1.02969E+03  2.269E+00  5.521E+01  5.584E-01  1.031E+00
   1   13    6     8     1    1.6818E+02  1.1572E+00   1.6702E+02  0.000E+00  0.000E+00  0.000E+00  1.02481E+03  2.936E+00  4.258E+01  4.339E-01  8.890E-01
   1   13    5     8     2    1.6702E+02  3.8948E-01   1.6663E+02  0.000E+00  0.000E+00  0.000E+00  1.01856E+03  2.931E+00  4.251E+01  4.331E-01  2.997E-01
   1   13    4     8     3    1.6663E+02 -1.7288E+00   1.6836E+02  0.000E+00  0.000E+00  0.000E+00  1.01231E+03  2.936E+00  4.257E+01  4.338E+00 -1.328E-01
   1   13    3     8     4    1.6836E+02 -3.2966E+00   1.7166E+02  0.000E+00  0.000E+00  0.000E+00  1.00608E+03  2.952E+00  4.281E+01  4.362E+00 -2.519E-01
   1   13    2     8     5    1.7166E+02 -2.4869E+00   1.7414E+02  0.000E+00  0.000E+00  0.000E+00  9.99846E+02  2.971E+00  4.308E+01  4.390E+00 -1.888E-01
   1   13    1     8     6    1.7414E+02 -1.9584E+00   1.7610E+02  0.000E+00  0.000E+00  0.000E+00  9.94860E+02  2.985E+00  4.329E+01  2.647E+00 -2.467E-01





UNSATURATED ZONE PACKAGE VOLUMETRIC BUDGET FOR  TIME STEP    30 STRESS PERIOD   44
  ------------------------------------------------------------------------------



     CUMULATIVE VOLUMES      L**3       RATES FOR THIS TIME STEP      L**3/T
     ------------------                 ------------------------

           IN:                                      IN:
           ---                                      ---
        INFILTRATION =  1841636340.1163          INFILTRATION =          88.1754

          OUT:                                     OUT:
          ----                                     ----
              UZF ET =  1553490325.0253                UZF ET =          60.7922
        UZF RECHARGE =   216053968.0352          UZF RECHARGE =       0.0000E+00

            IN - OUT =    72092047.0558              IN - OUT =          27.3832

          STORAGE:                                 STORAGE:
          --------                                 --------
      STORAGE CHANGE =    72092018.7694        STORAGE CHANGE =          27.3832

 PERCENT DISCREPANCY IS DIFFERENCE BETWEEN IN-OUT MINUS CHANGE IN STORAGE
 DIVIDED BY THE AVERAGE OF IN AND OUT TIMES 100

 PERCENT DISCREPANCY =           0.00     PERCENT DISCREPANCY =           0.00






1
  VOLUMETRIC BUDGET FOR AGRICULTURAL FIELDS AT  END OF TIME STEP   30, STRESS PERIOD  44
  ------------------------------------------------------------------------------

     CUMULATIVE VOLUMES      L**3       RATES FOR THIS TIME STEP      L**3/T
     ------------------                 ------------------------

           IN:                                      IN:
           ---                                      ---
               AG WELLS  =  1745716864.0000                 AG WELLS  =          87.3279
      DIVERSION SEGMENTS =           0.0000        DIVERSION SEGMENTS =           0.0000
           GW IRRIGATION =           0.0000             GW IRRIGATION =           0.0000
           SW IRRIGATION =           0.0000             SW IRRIGATION =           0.0000
        SYSTEM LOSSES GW =           0.0000          SYSTEM LOSSES GW =           0.0000
        SYSTEM LOSSES SW =           0.0000          SYSTEM LOSSES SW =           0.0000

                TOTAL IN =  1745716864.0000                  TOTAL IN =          87.3279

          OUT:                                     OUT:
          ----                                     ----
               AG WELLS  =           0.0000                 AG WELLS  =           0.0000
      DIVERSION SEGMENTS =           0.0000        DIVERSION SEGMENTS =           0.0000
           GW IRRIGATION =  1745716864.0000             GW IRRIGATION =          87.3279
           SW IRRIGATION =           0.0000             SW IRRIGATION =           0.0000
        SYSTEM LOSSES GW =           0.0000          SYSTEM LOSSES GW =           0.0000
        SYSTEM LOSSES SW =           0.0000          SYSTEM LOSSES SW =           0.0000

               TOTAL OUT =  1745716864.0000                 TOTAL OUT =          87.3279

                IN - OUT =           0.0000                  IN - OUT =           0.0000

     PERCENT DISCREPANCY =           0.00         PERCENT DISCREPANCY =           0.00



1
  VOLUMETRIC BUDGET FOR ENTIRE MODEL AT END OF TIME STEP   30, STRESS PERIOD  44
  ------------------------------------------------------------------------------

     CUMULATIVE VOLUMES      L**3       RATES FOR THIS TIME STEP      L**3/T
     ------------------                 ------------------------

           IN:                                      IN:
           ---                                      ---
             STORAGE     =  2181683456.0000               STORAGE     =          84.4488
       CONSTANT HEAD     =           0.0000         CONSTANT HEAD     =           0.0000
     HEAD DEP BOUNDS     =    32390696.0000       HEAD DEP BOUNDS     =           0.2884
      STREAM LEAKAGE     =  1387878784.0000        STREAM LEAKAGE     =          12.3698
        UZF RECHARGE     =   216053968.0000          UZF RECHARGE     =           0.0000
               GW ET     =           0.0000                 GW ET     =           0.0000
     SURFACE LEAKAGE     =           0.0000       SURFACE LEAKAGE     =           0.0000
           AG WELLS      =           0.0000             AG WELLS      =           0.0000

                TOTAL IN =  3818006784.0000                  TOTAL IN =          97.1070

          OUT:                                     OUT:
          ----                                     ----
             STORAGE     =   876072448.0000               STORAGE     =       1.6993E-02
       CONSTANT HEAD     =           0.0000         CONSTANT HEAD     =           0.0000
     HEAD DEP BOUNDS     =    33030960.0000       HEAD DEP BOUNDS     =           0.2888
      STREAM LEAKAGE     =  1145634048.0000        STREAM LEAKAGE     =           9.4707
        UZF RECHARGE     =           0.0000          UZF RECHARGE     =           0.0000
               GW ET     =    17516984.0000                 GW ET     =           0.0000
     SURFACE LEAKAGE     =           0.0000       SURFACE LEAKAGE     =           0.0000
           AG WELLS      =  1745716864.0000             AG WELLS      =          87.3279

               TOTAL OUT =  3817971200.0000                 TOTAL OUT =          97.1044

                IN - OUT =       35584.0000                  IN - OUT =       2.6550E-03

     PERCENT DISCREPANCY =           0.00         PERCENT DISCREPANCY =           0.00






         TIME SUMMARY AT END OF TIME STEP   30 IN STRESS PERIOD   44
                    SECONDS     MINUTES      HOURS       DAYS        YEARS
                    -----------------------------------------------------------
   TIME STEP LENGTH  87667.      1461.1      24.352      1.0147     2.77799E-03
 STRESS PERIOD TIME 2.63000E+06  43833.      730.56      30.440     8.33397E-02
         TOTAL TIME 1.13175E+08 1.88626E+06  31438.      1309.9      3.5863    
1
1
                            STRESS PERIOD NO.   45, LENGTH =   2630000.    
                            -----------------------------------------------

                              NUMBER OF TIME STEPS =    30

                               MULTIPLIER FOR DELT =     1.000

                            INITIAL TIME STEP SIZE =   87666.66    

 REUSING NON-PARAMETER GHB CELLS FROM LAST STRESS PERIOD

      2 GHB CELLS

 REUSING STREAM SEGMENT DATA FROM LAST STRESS PERIOD



            AREAL INFILTRATION RATE
 READING ON UNIT   19 WITH FORMAT: (FREE)              

            1           2           3           4           5           6           7           8           9          10
 ........................................................................................................................
   1   1.0000E-10  2.0000E-10   0.000       0.000       0.000       0.000       0.000       0.000       0.000       0.000    
   2   2.0000E-10  1.0000E-10  2.0000E-10   0.000       0.000      8.0000E-10  8.0000E-10  5.0000E-10   0.000       0.000    
   3    0.000      5.0000E-10  1.0000E-10  1.0000E-10  8.0000E-10  8.0000E-10  5.0000E-10  5.0000E-10   0.000       0.000    
   4   8.0000E-10  5.0000E-10  1.0000E-10  1.0000E-10  1.0000E-10  1.0000E-10  1.0000E-10  1.0000E-10  2.0000E-10   0.000    
   5   8.0000E-10  5.0000E-10  1.0000E-10  1.0000E-10  1.0000E-10  1.0000E-10  1.0000E-10  1.0000E-10  1.0000E-10  1.0000E-10
   6   8.0000E-10  5.0000E-10  5.0000E-10  2.0000E-10  2.0000E-10  1.0000E-10  1.0000E-10  1.0000E-10  1.0000E-10  5.0000E-10
   7   8.0000E-10  5.0000E-10  5.0000E-10  2.0000E-10  2.0000E-10  1.0000E-10  1.0000E-10  2.0000E-10  2.0000E-10   0.000    
   8    0.000      5.0000E-10  5.0000E-10  2.0000E-10  2.0000E-10  1.0000E-10  1.0000E-10  2.0000E-10  5.0000E-10   0.000    
   9    0.000      5.0000E-10  5.0000E-10  2.0000E-10  2.0000E-10  1.0000E-10  1.0000E-10  2.0000E-10  5.0000E-10   0.000    
  10    0.000      5.0000E-10  5.0000E-10  2.0000E-10  2.0000E-10  1.0000E-10  1.0000E-10  2.0000E-10  5.0000E-10  8.0000E-10
  11    0.000      1.0000E-10  1.0000E-10  1.0000E-10  1.0000E-10  1.0000E-10  1.0000E-10  2.0000E-10  5.0000E-10   0.000    
  12   1.0000E-10  1.0000E-10  1.0000E-10  1.0000E-10  1.0000E-10  1.0000E-10  1.0000E-10  1.0000E-10  2.0000E-10   0.000    
  13   1.0000E-10  1.0000E-10  2.0000E-10  2.0000E-10  2.0000E-10  2.0000E-10  2.0000E-10  1.0000E-10  1.0000E-10   0.000    
  14    0.000      2.0000E-10  5.0000E-10  5.0000E-10  5.0000E-10  5.0000E-10  5.0000E-10  2.0000E-10  1.0000E-10   0.000    
  15    0.000       0.000      8.0000E-10  8.0000E-10  8.0000E-10  8.0000E-10   0.000       0.000       0.000       0.000    

                  ET RATE =  3.250000E-07

 USING ET EXTINCTION DEPTH FROM PREVIOUS STRESS PERIOD. CURRENT PERIOD IS:      45

 USING EXTINCTION WATER CONTENT FROM PREVIOUS STRESS PERIOD. CURRENT PERIOD IS:      45

 USING AIR ENTRY PRESSURE FROM PREVIOUS STRESS PERIOD. CURRENT PERIOD IS:      45

 USING ROOT PRESSURE HEAD FROM PREVIOUS STRESS PERIOD. CURRENT PERIOD IS:      45

 USING ROOT ACTIVITY FROM PREVIOUS STRESS PERIOD. CURRENT PERIOD IS:      45

 PROCESSING AG STRESS PERIOD DATA

 READING AG STRESS PERIOD DATA

 READING IRRIGATION WELL

 END PROCESSING AG STRESS PERIOD DATA OPTIONS
 
 SOLVING FOR HEAD 
                                                   Max.-Head-Change                         Max.-Flux-Residual
  Residual-Control   Outer-Iter.   Inner-Iter.     Column Row Layer    Maximum-Head-Change  Column Row Layer    Maximum-Flux-Residual          L2-NORM 
          0                 1           2             4    7     1      -0.6766953671E-01       4    7    1        -0.3585311885E+01      0.9491059063E+01
          0                 2           2             4    7     1       0.6582277340E-02       4    7    1         0.3585226356E+00      0.9490949282E+00
          0                 3           2             4    7     1      -0.4482298908E-03       4    7    1        -0.2509667626E-01      0.6643677563E-01
          0                 4           1             4    7     1       0.1783548116E-04       4    7    1         0.1026455122E-02      0.2717267681E-02

    ------------------------------------------------
       NWT REQUIRED            4 OUTER ITERATIONS 
       AND A TOTAL OF          7 INNER ITERATIONS.
    ------------------------------------------------

 NO OUTPUT CONTROL FOR STRESS PERIOD   45   TIME STEP    1
 
 SOLVING FOR HEAD 
                                                   Max.-Head-Change                         Max.-Flux-Residual
  Residual-Control   Outer-Iter.   Inner-Iter.     Column Row Layer    Maximum-Head-Change  Column Row Layer    Maximum-Flux-Residual          L2-NORM 
          0                 1           2             4    7     1      -0.6640109877E-01       4    7    1        -0.3515872416E+01      0.9366000461E+01
          0                 2           2             4    7     1       0.6458898348E-02       4    7    1         0.3515790752E+00      0.9365899794E+00
          0                 3           2             4    7     1      -0.4398281856E-03       4    7    1        -0.2461062317E-01      0.6556142057E-01
          0                 4           1             4    7     1       0.1750116937E-04       4    7    1         0.1006575529E-02      0.2681465495E-02

    ------------------------------------------------
       NWT REQUIRED            4 OUTER ITERATIONS 
       AND A TOTAL OF          7 INNER ITERATIONS.
    ------------------------------------------------

 NO OUTPUT CONTROL FOR STRESS PERIOD   45   TIME STEP    2
 
 SOLVING FOR HEAD 
                                                   Max.-Head-Change                         Max.-Flux-Residual
  Residual-Control   Outer-Iter.   Inner-Iter.     Column Row Layer    Maximum-Head-Change  Column Row Layer    Maximum-Flux-Residual          L2-NORM 
          0                 1           2             4    7     1      -0.6519723876E-01       4    7    1        -0.3449966844E+01      0.9251565789E+01
          0                 2           2             4    7     1       0.6341800797E-02       4    7    1         0.3449888873E+00      0.9251473196E+00
          0                 3           2             4    7     1      -0.4318542257E-03       4    7    1        -0.2414930632E-01      0.6476042553E-01
          0                 4           1             4    7     1       0.1718387828E-04       4    7    1         0.9877076673E-03      0.2648709160E-02

    ------------------------------------------------
       NWT REQUIRED            4 OUTER ITERATIONS 
       AND A TOTAL OF          7 INNER ITERATIONS.
    ------------------------------------------------

 NO OUTPUT CONTROL FOR STRESS PERIOD   45   TIME STEP    3
 
 SOLVING FOR HEAD 
                                                   Max.-Head-Change                         Max.-Flux-Residual
  Residual-Control   Outer-Iter.   Inner-Iter.     Column Row Layer    Maximum-Head-Change  Column Row Layer    Maximum-Flux-Residual          L2-NORM 
          0                 1           2             4    7     1      -0.6405464167E-01       4    7    1        -0.3387416852E+01      0.9146606894E+01
          0                 2           2             4    7     1       0.6230662229E-02       4    7    1         0.3387342404E+00      0.9146521645E+00
          0                 3           2             4    7     1      -0.4242860527E-03       4    7    1        -0.2371147752E-01      0.6402575754E-01
          0                 4           1             4    7     1       0.1688273384E-04       4    7    1         0.9698004596E-03      0.2618656857E-02

    ------------------------------------------------
       NWT REQUIRED            4 OUTER ITERATIONS 
       AND A TOTAL OF          7 INNER ITERATIONS.
    ------------------------------------------------

 NO OUTPUT CONTROL FOR STRESS PERIOD   45   TIME STEP    4
 
 SOLVING FOR HEAD 
                                                   Max.-Head-Change                         Max.-Flux-Residual
  Residual-Control   Outer-Iter.   Inner-Iter.     Column Row Layer    Maximum-Head-Change  Column Row Layer    Maximum-Flux-Residual          L2-NORM 
          0                 1           2             4    7     1      -0.6297012918E-01       4    7    1        -0.3328050554E+01      0.9050144943E+01
          0                 2           2             4    7     1       0.6125173486E-02       4    7    1         0.3327979466E+00      0.9050066302E+00
          0                 3           2             4    7     1      -0.4171026138E-03       4    7    1        -0.2329593358E-01      0.6335056251E-01
          0                 4           1             4    7     1       0.1659689837E-04       4    7    1         0.9528047026E-03      0.2591041754E-02

    ------------------------------------------------
       NWT REQUIRED            4 OUTER ITERATIONS 
       AND A TOTAL OF          7 INNER ITERATIONS.
    ------------------------------------------------

 NO OUTPUT CONTROL FOR STRESS PERIOD   45   TIME STEP    5
 
 SOLVING FOR HEAD 
                                                   Max.-Head-Change                         Max.-Flux-Residual
  Residual-Control   Outer-Iter.   Inner-Iter.     Column Row Layer    Maximum-Head-Change  Column Row Layer    Maximum-Flux-Residual          L2-NORM 
          0                 1           2             4    7     1      -0.6194065246E-01       4    7    1        -0.3271703151E+01      0.8961262056E+01
          0                 2           2             4    7     1       0.6025038007E-02       4    7    1         0.3271635264E+00      0.8961142873E+00
          0                 3           2             4    7     1      -0.4102837143E-03       4    7    1        -0.2290152096E-01      0.6272809453E-01
          0                 4           1             4    7     1       0.1632556817E-04       4    7    1         0.9366732061E-03      0.2565582381E-02

    ------------------------------------------------
       NWT REQUIRED            4 OUTER ITERATIONS 
       AND A TOTAL OF          7 INNER ITERATIONS.
    ------------------------------------------------

 NO OUTPUT CONTROL FOR STRESS PERIOD   45   TIME STEP    6
 
 SOLVING FOR HEAD 
                                                   Max.-Head-Change                         Max.-Flux-Residual
  Residual-Control   Outer-Iter.   Inner-Iter.     Column Row Layer    Maximum-Head-Change  Column Row Layer    Maximum-Flux-Residual          L2-NORM 
          0                 1           2             4    7     1      -0.6096329657E-01       4    7    1        -0.3218216557E+01      0.8879174790E+01
          0                 2           2             4    7     1       0.5929972252E-02       4    7    1         0.3218151719E+00      0.8879107078E+00
          0                 3           2             4    7     1      -0.4038100471E-03       4    7    1        -0.2252713311E-01      0.6215383802E-01
          0                 4           1             4    7     1       0.1606797535E-04       4    7    1         0.9213607545E-03      0.2542097086E-02

    ------------------------------------------------
       NWT REQUIRED            4 OUTER ITERATIONS 
       AND A TOTAL OF          7 INNER ITERATIONS.
    ------------------------------------------------

 NO OUTPUT CONTROL FOR STRESS PERIOD   45   TIME STEP    7
 
 SOLVING FOR HEAD 
                                                   Max.-Head-Change                         Max.-Flux-Residual
  Residual-Control   Outer-Iter.   Inner-Iter.     Column Row Layer    Maximum-Head-Change  Column Row Layer    Maximum-Flux-Residual          L2-NORM 
          0                 1           2             4    7     1      -0.6003515018E-01       4    7    1        -0.3167432447E+01      0.8803178479E+01
          0                 2           2             4    7     1       0.5839693036E-02       4    7    1         0.3167370510E+00      0.8803115223E+00
          0                 3           2             4    7     1      -0.3976623266E-03       4    7    1        -0.2217166175E-01      0.6162189114E-01
          0                 4           1             4    7     1       0.1582335188E-04       4    7    1         0.9068219574E-03      0.2520338878E-02

    ------------------------------------------------
       NWT REQUIRED            4 OUTER ITERATIONS 
       AND A TOTAL OF          7 INNER ITERATIONS.
    ------------------------------------------------

 NO OUTPUT CONTROL FOR STRESS PERIOD   45   TIME STEP    8
 
 SOLVING FOR HEAD 
                                                   Max.-Head-Change                         Max.-Flux-Residual
  Residual-Control   Outer-Iter.   Inner-Iter.     Column Row Layer    Maximum-Head-Change  Column Row Layer    Maximum-Flux-Residual          L2-NORM 
          0                 1           2             4    7     1      -0.5915355731E-01       4    7    1        -0.3119207053E+01      0.8732629643E+01
          0                 2           2             4    7     1       0.5753942009E-02       4    7    1         0.3119147872E+00      0.8732570337E+00
          0                 3           2             4    7     1      -0.3918229616E-03       4    7    1        -0.2183410055E-01      0.6112807250E-01
          0                 4           1             4    7     1       0.1559099802E-04       4    7    1         0.8930156941E-03      0.2500141369E-02

    ------------------------------------------------
       NWT REQUIRED            4 OUTER ITERATIONS 
       AND A TOTAL OF          7 INNER ITERATIONS.
    ------------------------------------------------

 NO OUTPUT CONTROL FOR STRESS PERIOD   45   TIME STEP    9
 
 SOLVING FOR HEAD 
                                                   Max.-Head-Change                         Max.-Flux-Residual
  Residual-Control   Outer-Iter.   Inner-Iter.     Column Row Layer    Maximum-Head-Change  Column Row Layer    Maximum-Flux-Residual          L2-NORM 
          0                 1           2             4    7     1      -0.5831599822E-01       4    7    1        -0.3073402657E+01      0.8666966944E+01
          0                 2           2             4    7     1       0.5672474076E-02       4    7    1         0.3073346096E+00      0.8666911167E+00
          0                 3           2             4    7     1      -0.3862752606E-03       4    7    1        -0.2151348548E-01      0.6066845559E-01
          0                 4           1             4    7     1       0.1537025028E-04       4    7    1         0.8799025272E-03      0.2481343619E-02

    ------------------------------------------------
       NWT REQUIRED            4 OUTER ITERATIONS 
       AND A TOTAL OF          7 INNER ITERATIONS.
    ------------------------------------------------

 NO OUTPUT CONTROL FOR STRESS PERIOD   45   TIME STEP   10
 
 SOLVING FOR HEAD 
                                                   Max.-Head-Change                         Max.-Flux-Residual
  Residual-Control   Outer-Iter.   Inner-Iter.     Column Row Layer    Maximum-Head-Change  Column Row Layer    Maximum-Flux-Residual          L2-NORM 
          0                 1           2             4    7     1      -0.5752007100E-01       4    7    1        -0.3029888610E+01      0.8605695182E+01
          0                 2           2             4    7     1       0.5595055603E-02       4    7    1         0.3029834536E+00      0.8605642534E+00
          0                 3           2             4    7     1      -0.3810033148E-03       4    7    1        -0.2120890207E-01      0.6023957078E-01
          0                 4           1             4    7     1       0.1516047478E-04       4    7    1         0.8674450587E-03      0.2463801621E-02

    ------------------------------------------------
       NWT REQUIRED            4 OUTER ITERATIONS 
       AND A TOTAL OF          7 INNER ITERATIONS.
    ------------------------------------------------

 NO OUTPUT CONTROL FOR STRESS PERIOD   45   TIME STEP   11
 
 SOLVING FOR HEAD 
                                                   Max.-Head-Change                         Max.-Flux-Residual
  Residual-Control   Outer-Iter.   Inner-Iter.     Column Row Layer    Maximum-Head-Change  Column Row Layer    Maximum-Flux-Residual          L2-NORM 
          0                 1           2             4    7     1      -0.5676323011E-01       4    7    1        -0.2988526010E+01      0.8548364674E+01
          0                 2           2             4    7     1       0.5521438986E-02       4    7    1         0.2988474295E+00      0.8548314831E+00
          0                 3           2             4    7     1      -0.3759902632E-03       4    7    1        -0.2091937803E-01      0.5983827517E-01
          0                 4           1             4    7     1       0.1496100102E-04       4    7    1         0.8556035136E-03      0.2447389424E-02

    ------------------------------------------------
       NWT REQUIRED            4 OUTER ITERATIONS 
       AND A TOTAL OF          7 INNER ITERATIONS.
    ------------------------------------------------

 NO OUTPUT CONTROL FOR STRESS PERIOD   45   TIME STEP   12
 
 SOLVING FOR HEAD 
                                                   Max.-Head-Change                         Max.-Flux-Residual
  Residual-Control   Outer-Iter.   Inner-Iter.     Column Row Layer    Maximum-Head-Change  Column Row Layer    Maximum-Flux-Residual          L2-NORM 
          0                 1           2             4    7     1      -0.5604358708E-01       4    7    1        -0.2949211590E+01      0.8494584036E+01
          0                 2           2             4    7     1       0.5451440535E-02       4    7    1         0.2949162111E+00      0.8494536701E+00
          0                 3           2             4    7     1      -0.3712235975E-03       4    7    1        -0.2064419053E-01      0.5946182490E-01
          0                 4           1             4    7     1       0.1477133118E-04       4    7    1         0.8443483580E-03      0.2431991715E-02

    ------------------------------------------------
       NWT REQUIRED            4 OUTER ITERATIONS 
       AND A TOTAL OF          7 INNER ITERATIONS.
    ------------------------------------------------

 NO OUTPUT CONTROL FOR STRESS PERIOD   45   TIME STEP   13
 
 SOLVING FOR HEAD 
                                                   Max.-Head-Change                         Max.-Flux-Residual
  Residual-Control   Outer-Iter.   Inner-Iter.     Column Row Layer    Maximum-Head-Change  Column Row Layer    Maximum-Flux-Residual          L2-NORM 
          0                 1           2             4    7     1      -0.5535868939E-01       4    7    1        -0.2911811533E+01      0.8443990268E+01
          0                 2           2             4    7     1       0.5384821693E-02       4    7    1         0.2911764174E+00      0.8443945154E+00
          0                 3           2             4    7     1      -0.3666870715E-03       4    7    1        -0.2038240283E-01      0.5910768262E-01
          0                 4           1             4    7     1       0.1459081824E-04       4    7    1         0.8336412320E-03      0.2417507566E-02

    ------------------------------------------------
       NWT REQUIRED            4 OUTER ITERATIONS 
       AND A TOTAL OF          7 INNER ITERATIONS.
    ------------------------------------------------

 NO OUTPUT CONTROL FOR STRESS PERIOD   45   TIME STEP   14
 
 SOLVING FOR HEAD 
                                                   Max.-Head-Change                         Max.-Flux-Residual
  Residual-Control   Outer-Iter.   Inner-Iter.     Column Row Layer    Maximum-Head-Change  Column Row Layer    Maximum-Flux-Residual          L2-NORM 
          0                 1           2             4    7     1      -0.5470687644E-01       4    7    1        -0.2876234570E+01      0.8396281643E+01
          0                 2           2             4    7     1       0.5321420935E-02       4    7    1         0.2876189218E+00      0.8396238522E+00
          0                 3           2             4    7     1      -0.3623696870E-03       4    7    1        -0.2013337614E-01      0.5877373178E-01
          0                 4           1             4    7     1       0.1441902587E-04       4    7    1         0.8234560364E-03      0.2403848424E-02

    ------------------------------------------------
       NWT REQUIRED            4 OUTER ITERATIONS 
       AND A TOTAL OF          7 INNER ITERATIONS.
    ------------------------------------------------

 NO OUTPUT CONTROL FOR STRESS PERIOD   45   TIME STEP   15
 
 SOLVING FOR HEAD 
                                                   Max.-Head-Change                         Max.-Flux-Residual
  Residual-Control   Outer-Iter.   Inner-Iter.     Column Row Layer    Maximum-Head-Change  Column Row Layer    Maximum-Flux-Residual          L2-NORM 
          0                 1           2             4    7     1      -0.5408604467E-01       4    7    1        -0.2842365884E+01      0.8351179272E+01
          0                 2           2             4    7     1       0.5261033649E-02       4    7    1         0.2842322432E+00      0.8351137936E+00
          0                 3           2             4    7     1      -0.3582575101E-03       4    7    1        -0.1989630673E-01      0.5845802751E-01
          0                 4           1             4    7     1       0.1425539881E-04       4    7    1         0.8137598911E-03      0.2390936561E-02

    ------------------------------------------------
       NWT REQUIRED            4 OUTER ITERATIONS 
       AND A TOTAL OF          7 INNER ITERATIONS.
    ------------------------------------------------

 NO OUTPUT CONTROL FOR STRESS PERIOD   45   TIME STEP   16
 
 SOLVING FOR HEAD 
                                                   Max.-Head-Change                         Max.-Flux-Residual
  Residual-Control   Outer-Iter.   Inner-Iter.     Column Row Layer    Maximum-Head-Change  Column Row Layer    Maximum-Flux-Residual          L2-NORM 
          0                 1           2             4    7     1      -0.5349434339E-01       4    7    1        -0.2810103584E+01      0.8308425219E+01
          0                 2           2             4    7     1       0.5203479823E-02       4    7    1         0.2810061929E+00      0.8308385506E+00
          0                 3           2             4    7     1      -0.3543382827E-03       4    7    1        -0.1967048142E-01      0.5815875831E-01
          0                 4           1             4    7     1       0.1409944903E-04       4    7    1         0.8045236254E-03      0.2378696720E-02

    ------------------------------------------------
       NWT REQUIRED            4 OUTER ITERATIONS 
       AND A TOTAL OF          7 INNER ITERATIONS.
    ------------------------------------------------

 NO OUTPUT CONTROL FOR STRESS PERIOD   45   TIME STEP   17
 
 SOLVING FOR HEAD 
                                                   Max.-Head-Change                         Max.-Flux-Residual
  Residual-Control   Outer-Iter.   Inner-Iter.     Column Row Layer    Maximum-Head-Change  Column Row Layer    Maximum-Flux-Residual          L2-NORM 
          0                 1           2             4    7     1      -0.5293027618E-01       4    7    1        -0.2779366062E+01      0.8267797819E+01
          0                 2           2             4    7     1       0.5148613897E-02       4    7    1         0.2779326107E+00      0.8267759554E+00
          0                 3           2             4    7     1      -0.3506020924E-03       4    7    1        -0.1945532894E-01      0.5787437546E-01
          0                 4           1             4    7     1       0.1395078223E-04       4    7    1         0.7957238818E-03      0.2367065015E-02

    ------------------------------------------------
       NWT REQUIRED            4 OUTER ITERATIONS 
       AND A TOTAL OF          7 INNER ITERATIONS.
    ------------------------------------------------

 NO OUTPUT CONTROL FOR STRESS PERIOD   45   TIME STEP   18
 
 SOLVING FOR HEAD 
                                                   Max.-Head-Change                         Max.-Flux-Residual
  Residual-Control   Outer-Iter.   Inner-Iter.     Column Row Layer    Maximum-Head-Change  Column Row Layer    Maximum-Flux-Residual          L2-NORM 
          0                 1           2             4    7     1      -0.5239217603E-01       4    7    1        -0.2750061376E+01      0.8229102534E+01
          0                 2           2             4    7     1       0.5096273728E-02       4    7    1         0.2750023027E+00      0.8229065565E+00
          0                 3           2             4    7     1      -0.3470378991E-03       4    7    1        -0.1925020580E-01      0.5760351508E-01
          0                 4           1             4    7     1       0.1380896034E-04       4    7    1         0.7873343520E-03      0.2355991919E-02

    ------------------------------------------------
       NWT REQUIRED            4 OUTER ITERATIONS 
       AND A TOTAL OF          7 INNER ITERATIONS.
    ------------------------------------------------

 NO OUTPUT CONTROL FOR STRESS PERIOD   45   TIME STEP   19
 
 SOLVING FOR HEAD 
                                                   Max.-Head-Change                         Max.-Flux-Residual
  Residual-Control   Outer-Iter.   Inner-Iter.     Column Row Layer    Maximum-Head-Change  Column Row Layer    Maximum-Flux-Residual          L2-NORM 
          0                 1           2             4    7     1      -0.5187833124E-01       4    7    1        -0.2722095918E+01      0.8192155859E+01
          0                 2           2             4    7     1       0.5046292817E-02       4    7    1         0.2722059086E+00      0.8192120071E+00
          0                 3           2             4    7     1      -0.3436343626E-03       4    7    1        -0.1905445669E-01      0.5734489544E-01
          0                 4           1             4    7     1       0.1367353022E-04       4    7    1         0.7793281893E-03      0.2345408365E-02

    ------------------------------------------------
       NWT REQUIRED            4 OUTER ITERATIONS 
       AND A TOTAL OF          7 INNER ITERATIONS.
    ------------------------------------------------

 NO OUTPUT CONTROL FOR STRESS PERIOD   45   TIME STEP   20
 
 SOLVING FOR HEAD 
                                                   Max.-Head-Change                         Max.-Flux-Residual
  Residual-Control   Outer-Iter.   Inner-Iter.     Column Row Layer    Maximum-Head-Change  Column Row Layer    Maximum-Flux-Residual          L2-NORM 
          0                 1           2             4    7     1      -0.5138752834E-01       4    7    1        -0.2695402456E+01      0.8156822026E+01
          0                 2           2             4    7     1       0.4998553135E-02       4    7    1         0.2695367058E+00      0.8156787291E+00
          0                 3           2             4    7     1      -0.3403834472E-03       4    7    1        -0.1886761105E-01      0.5709756365E-01
          0                 4           1             4    7     1       0.1354417365E-04       4    7    1         0.7716862051E-03      0.2335293421E-02

    ------------------------------------------------
       NWT REQUIRED            4 OUTER ITERATIONS 
       AND A TOTAL OF          7 INNER ITERATIONS.
    ------------------------------------------------

 NO OUTPUT CONTROL FOR STRESS PERIOD   45   TIME STEP   21
 
 SOLVING FOR HEAD 
                                                   Max.-Head-Change                         Max.-Flux-Residual
  Residual-Control   Outer-Iter.   Inner-Iter.     Column Row Layer    Maximum-Head-Change  Column Row Layer    Maximum-Flux-Residual          L2-NORM 
          0                 1           2             4    7     1      -0.5091822146E-01       4    7    1        -0.2669896553E+01      0.8122928797E+01
          0                 2           2             4    7     1       0.4952904315E-02       4    7    1         0.2669862508E+00      0.8122895038E+00
          0                 3           2             4    7     1      -0.3372749130E-03       4    7    1        -0.1868907785E-01      0.5686031918E-01
          0                 4           1             4    7     1       0.1342048251E-04       4    7    1         0.7643842105E-03      0.2325590068E-02

    ------------------------------------------------
       NWT REQUIRED            4 OUTER ITERATIONS 
       AND A TOTAL OF          7 INNER ITERATIONS.
    ------------------------------------------------

 NO OUTPUT CONTROL FOR STRESS PERIOD   45   TIME STEP   22
 
 SOLVING FOR HEAD 
                                                   Max.-Head-Change                         Max.-Flux-Residual
  Residual-Control   Outer-Iter.   Inner-Iter.     Column Row Layer    Maximum-Head-Change  Column Row Layer    Maximum-Flux-Residual          L2-NORM 
          0                 1           2             4    7     1      -0.5046922184E-01       4    7    1        -0.2645512399E+01      0.8090370406E+01
          0                 2           2             4    7     1       0.4909230730E-02       4    7    1         0.2645479632E+00      0.8090337543E+00
          0                 3           2             4    7     1      -0.3343008853E-03       4    7    1        -0.1851839640E-01      0.5663241635E-01
          0                 4           1             4    7     1       0.1330214320E-04       4    7    1         0.7574033339E-03      0.2316268402E-02

    ------------------------------------------------
       NWT REQUIRED            4 OUTER ITERATIONS 
       AND A TOTAL OF          7 INNER ITERATIONS.
    ------------------------------------------------

 NO OUTPUT CONTROL FOR STRESS PERIOD   45   TIME STEP   23
 
 SOLVING FOR HEAD 
                                                   Max.-Head-Change                         Max.-Flux-Residual
  Residual-Control   Outer-Iter.   Inner-Iter.     Column Row Layer    Maximum-Head-Change  Column Row Layer    Maximum-Flux-Residual          L2-NORM 
          0                 1           2             4    7     1      -0.5003941008E-01       4    7    1        -0.2622188355E+01      0.8059022050E+01
          0                 2           2             4    7     1       0.4867423498E-02       4    7    1         0.2622156794E+00      0.8058989974E+00
          0                 3           2             4    7     1      -0.3314539509E-03       4    7    1        -0.1835513533E-01      0.5641298135E-01
          0                 4           1             4    7     1       0.1318886075E-04       4    7    1         0.7507259375E-03      0.2307294278E-02

    ------------------------------------------------
       NWT REQUIRED            4 OUTER ITERATIONS 
       AND A TOTAL OF          7 INNER ITERATIONS.
    ------------------------------------------------

 NO OUTPUT CONTROL FOR STRESS PERIOD   45   TIME STEP   24
 
 SOLVING FOR HEAD 
                                                   Max.-Head-Change                         Max.-Flux-Residual
  Residual-Control   Outer-Iter.   Inner-Iter.     Column Row Layer    Maximum-Head-Change  Column Row Layer    Maximum-Flux-Residual          L2-NORM 
          0                 1           2             4    7     1      -0.4962746973E-01       4    7    1        -0.2599852039E+01      0.8028783992E+01
          0                 2           2             4    7     1       0.4827354570E-02       4    7    1         0.2599821616E+00      0.8028752649E+00
          0                 3           2             4    7     1      -0.3287253896E-03       4    7    1        -0.1819878795E-01      0.5620131963E-01
          0                 4           1             4    7     1       0.1308028886E-04       4    7    1         0.7443313289E-03      0.2298636947E-02

    ------------------------------------------------
       NWT REQUIRED            4 OUTER ITERATIONS 
       AND A TOTAL OF          7 INNER ITERATIONS.
    ------------------------------------------------

 NO OUTPUT CONTROL FOR STRESS PERIOD   45   TIME STEP   25
 
 SOLVING FOR HEAD 
                                                   Max.-Head-Change                         Max.-Flux-Residual
  Residual-Control   Outer-Iter.   Inner-Iter.     Column Row Layer    Maximum-Head-Change  Column Row Layer    Maximum-Flux-Residual          L2-NORM 
          0                 1           2             4    7     1      -0.4923255586E-01       4    7    1        -0.2578456702E+01      0.7999575507E+01
          0                 2           2             4    7     1       0.4788941761E-02       4    7    1         0.2578427350E+00      0.7999544828E+00
          0                 3           2             4    7     1      -0.3261096049E-03       4    7    1        -0.1804902703E-01      0.5599686212E-01
          0                 4           1             4    7     1       0.1297620407E-04       4    7    1         0.7382060967E-03      0.2290278378E-02

    ------------------------------------------------
       NWT REQUIRED            4 OUTER ITERATIONS 
       AND A TOTAL OF          7 INNER ITERATIONS.
    ------------------------------------------------

 NO OUTPUT CONTROL FOR STRESS PERIOD   45   TIME STEP   26
 
 SOLVING FOR HEAD 
                                                   Max.-Head-Change                         Max.-Flux-Residual
  Residual-Control   Outer-Iter.   Inner-Iter.     Column Row Layer    Maximum-Head-Change  Column Row Layer    Maximum-Flux-Residual          L2-NORM 
          0                 1           2             4    7     1      -0.4885334770E-01       4    7    1        -0.2557929858E+01      0.7971301966E+01
          0                 2           2             4    7     1       0.4752056604E-02       4    7    1         0.2557901518E+00      0.7971271905E+00
          0                 3           2             4    7     1      -0.3235978479E-03       4    7    1        -0.1790534518E-01      0.5579895220E-01
          0                 4           1             4    7     1       0.1287625892E-04       4    7    1         0.7323295022E-03      0.2282180254E-02

    ------------------------------------------------
       NWT REQUIRED            4 OUTER ITERATIONS 
       AND A TOTAL OF          7 INNER ITERATIONS.
    ------------------------------------------------

 NO OUTPUT CONTROL FOR STRESS PERIOD   45   TIME STEP   27
 
 SOLVING FOR HEAD 
                                                   Max.-Head-Change                         Max.-Flux-Residual
  Residual-Control   Outer-Iter.   Inner-Iter.     Column Row Layer    Maximum-Head-Change  Column Row Layer    Maximum-Flux-Residual          L2-NORM 
          0                 1           2             4    7     1      -0.4848913062E-01       4    7    1        -0.2538231698E+01      0.7943894238E+01
          0                 2           2             4    7     1       0.4716629587E-02       4    7    1         0.2538204312E+00      0.7943864724E+00
          0                 3           2             4    7     1      -0.3211853862E-03       4    7    1        -0.1776746377E-01      0.5560709910E-01
          0                 4           1             4    7     1       0.1278026553E-04       4    7    1         0.7266901625E-03      0.2274332713E-02

    ------------------------------------------------
       NWT REQUIRED            4 OUTER ITERATIONS 
       AND A TOTAL OF          7 INNER ITERATIONS.
    ------------------------------------------------

 NO OUTPUT CONTROL FOR STRESS PERIOD   45   TIME STEP   28
 
 SOLVING FOR HEAD 
                                                   Max.-Head-Change                         Max.-Flux-Residual
  Residual-Control   Outer-Iter.   Inner-Iter.     Column Row Layer    Maximum-Head-Change  Column Row Layer    Maximum-Flux-Residual          L2-NORM 
          0                 1           2             4    7     1      -0.4813884296E-01       4    7    1        -0.2519303665E+01      0.7917292530E+01
          0                 2           2             4    7     1       0.4682557447E-02       4    7    1         0.2519277180E+00      0.7917263534E+00
          0                 3           2             4    7     1      -0.3188651871E-03       4    7    1        -0.1763497293E-01      0.5542089351E-01
          0                 4           1             4    7     1       0.1268794275E-04       4    7    1         0.7212712899E-03      0.2266719177E-02

    ------------------------------------------------
       NWT REQUIRED            4 OUTER ITERATIONS 
       AND A TOTAL OF          7 INNER ITERATIONS.
    ------------------------------------------------

 NO OUTPUT CONTROL FOR STRESS PERIOD   45   TIME STEP   29
 
 SOLVING FOR HEAD 
                                                   Max.-Head-Change                         Max.-Flux-Residual
  Residual-Control   Outer-Iter.   Inner-Iter.     Column Row Layer    Maximum-Head-Change  Column Row Layer    Maximum-Flux-Residual          L2-NORM 
          0                 1           2             4    7     1      -0.4780174319E-01       4    7    1        -0.2501105046E+01      0.7891429211E+01
          0                 2           2             4    7     1       0.4649768055E-02       4    7    1         0.2501079410E+00      0.7891400713E+00
          0                 3           2             4    7     1      -0.3166323391E-03       4    7    1        -0.1750758769E-01      0.5523985118E-01
          0                 4           1             4    7     1       0.1259909532E-04       4    7    1         0.7160612313E-03      0.2259313037E-02

    ------------------------------------------------
       NWT REQUIRED            4 OUTER ITERATIONS 
       AND A TOTAL OF          7 INNER ITERATIONS.
    ------------------------------------------------

 NO OUTPUT CONTROL FOR STRESS PERIOD   45   TIME STEP   30



 STREAM LISTING     PERIOD     45   STEP       30

 LAYER ROW COL. STREAM  RCH.  FLOW INTO     FLOW TO   FLOW OUT OF   OVRLND.     DIRECT     STREAM       STREAM     STREAM     STREAM   STREAMBED  STREAMBED
                SEG.NO.  NO.  STRM. RCH.    AQUIFER    STRM. RCH.    RUNOFF     PRECIP       ET          HEAD       DEPTH      WIDTH   CONDCTNC.   GRADIENT

   1    1    1     1     1    1.9000E+01  2.1427E-01   1.8786E+01  0.000E+00  0.000E+00  0.000E+00  1.09413E+03  1.082E+00  1.166E+01  5.249E-02  1.361E+00
   1    2    2     1     2    1.8786E+01  3.3054E-01   1.8455E+01  0.000E+00  0.000E+00  0.000E+00  1.08914E+03  1.077E+00  1.158E+01  8.107E-02  1.359E+00
   1    3    3     1     3    1.8455E+01  2.8064E-01   1.8175E+01  0.000E+00  0.000E+00  0.000E+00  1.08349E+03  1.072E+00  1.149E+01  6.892E-02  1.357E+00
   1    3    4     1     4    1.8175E+01  2.5740E-01   1.7917E+01  0.000E+00  0.000E+00  0.000E+00  1.07848E+03  1.068E+00  1.140E+01  6.328E-02  1.356E+00
   1    4    5     2     1    1.5917E+01  3.0542E-01   1.5612E+01  0.000E+00  0.000E+00  0.000E+00  1.07285E+03  9.157E-01  1.200E+01  7.800E-02  1.305E+00
   1    5    6     2     2    1.5612E+01  2.3438E-01   1.5377E+01  0.000E+00  0.000E+00  0.000E+00  1.06742E+03  9.063E-01  1.200E+01  6.000E-02  1.302E+00
   1    6    6     2     3    1.5377E+01  2.3388E-01   1.5143E+01  0.000E+00  0.000E+00  0.000E+00  1.06269E+03  8.980E-01  1.200E+01  6.000E-02  1.299E+00
   1    7    6     2     4    1.5143E+01  2.3338E-01   1.4910E+01  0.000E+00  0.000E+00  0.000E+00  1.05797E+03  8.897E-01  1.200E+01  6.000E-02  1.297E+00
   1    8    6     2     5    1.4910E+01  2.3289E-01   1.4677E+01  0.000E+00  0.000E+00  0.000E+00  1.05324E+03  8.814E-01  1.200E+01  6.000E-02  1.294E+00
   1    3    5     3     1    2.0000E+00  2.8252E-01   1.7175E+00  0.000E+00  0.000E+00  0.000E+00  1.07555E+03  1.909E+00  9.636E+00  7.227E-02  1.955E+00
   1    3    6     3     2    1.7175E+00  2.4905E-01   1.4684E+00  0.000E+00  0.000E+00  0.000E+00  1.07264E+03  1.727E+00  8.909E+00  6.682E-02  1.864E+00
   1    3    7     3     3    1.4684E+00  1.9718E-01   1.2712E+00  0.000E+00  0.000E+00  0.000E+00  1.06987E+03  1.555E+00  8.218E+00  5.547E-02  1.777E+00
   1    4    8     3     4    1.2712E+00  2.2567E-01   1.0456E+00  0.000E+00  0.000E+00  0.000E+00  1.06682E+03  1.364E+00  7.455E+00  6.709E-02  1.682E+00
   1    5    8     3     5    1.0456E+00  1.5790E-01   8.8768E-01  0.000E+00  0.000E+00  0.000E+00  1.06362E+03  1.164E+00  6.655E+00  4.991E-02  1.582E+00
   1    6    8     3     6    8.8768E-01  5.5980E-02   8.3170E-01  0.000E+00  0.000E+00  0.000E+00  1.06158E+03  1.036E+00  6.145E+00  1.844E-02  1.518E+00
   1    5   10     4     1    1.0000E+01  9.0919E-02   9.9091E+00  0.000E+00  0.000E+00  0.000E+00  1.07836E+03  6.368E-01  1.000E+01  2.500E-02  1.212E+00
   1    5    9     4     2    9.9091E+00  1.8158E-01   9.7275E+00  0.000E+00  0.000E+00  0.000E+00  1.07154E+03  6.315E-01  1.000E+01  5.000E-02  1.211E+00
   1    6    8     4     3    9.7275E+00  1.2689E-01   9.6006E+00  0.000E+00  0.000E+00  0.000E+00  1.06381E+03  6.256E-01  1.000E+01  3.500E-02  1.209E+00
   1    6    8     5     1    1.0432E+01  2.2686E-01   1.0205E+01  0.000E+00  0.000E+00  0.000E+00  1.05868E+03  6.790E-01  1.542E+01  6.166E-02  1.226E+00
   1    7    7     5     2    1.0205E+01  2.7894E-01   9.9265E+00  0.000E+00  0.000E+00  0.000E+00  1.05417E+03  6.732E-01  1.519E+01  7.594E-02  1.224E+00
   1    8    7     5     3    9.9265E+00  1.9221E-01   9.7343E+00  0.000E+00  0.000E+00  0.000E+00  1.04992E+03  6.676E-01  1.497E+01  5.241E-02  1.223E+00
   1    8    6     5     4    9.7343E+00  1.3577E-01   9.5985E+00  0.000E+00  0.000E+00  0.000E+00  1.04691E+03  6.637E-01  1.482E+01  3.706E-02  1.221E+00
   1    9    6     6     1    2.4276E+01  2.5176E-01   2.4024E+01  0.000E+00  0.000E+00  0.000E+00  1.04392E+03  1.196E+00  1.200E+01  6.000E-02  1.399E+00
   1   10    7     6     2    2.4024E+01  2.5131E-01   2.3773E+01  0.000E+00  0.000E+00  0.000E+00  1.03937E+03  1.188E+00  1.200E+01  6.000E-02  1.396E+00
   1   11    7     6     3    2.3773E+01  2.5086E-01   2.3522E+01  0.000E+00  0.000E+00  0.000E+00  1.03482E+03  1.181E+00  1.200E+01  6.000E-02  1.394E+00
   1   12    7     6     4    2.3522E+01  2.5041E-01   2.3271E+01  0.000E+00  0.000E+00  0.000E+00  1.03026E+03  1.173E+00  1.200E+01  6.000E-02  1.391E+00
   1   13    7     6     5    2.3271E+01  1.1780E-02   2.3260E+01  0.000E+00  0.000E+00  0.000E+00  1.02708E+03  1.169E+00  1.200E+01  2.400E-02  1.636E-01
   1   14    9     7     1    1.5000E+02  1.3766E+00   1.4862E+02  0.000E+00  0.000E+00  0.000E+00  1.03987E+03  2.288E+00  5.529E+01  5.593E-01  8.204E-01
   1   13    8     7     2    1.4862E+02  1.9857E+00   1.4664E+02  0.000E+00  0.000E+00  0.000E+00  1.03478E+03  2.279E+00  5.525E+01  6.147E-01  1.077E+00
   1   13    7     7     3    1.4664E+02  1.7311E+00   1.4491E+02  0.000E+00  0.000E+00  0.000E+00  1.02969E+03  2.269E+00  5.521E+01  5.584E-01  1.033E+00
   1   13    6     8     1    1.6817E+02  1.1602E+00   1.6701E+02  0.000E+00  0.000E+00  0.000E+00  1.02481E+03  2.936E+00  4.258E+01  4.339E-01  8.913E-01
   1   13    5     8     2    1.6701E+02  3.9224E-01   1.6661E+02  0.000E+00  0.000E+00  0.000E+00  1.01856E+03  2.931E+00  4.250E+01  4.331E-01  3.019E-01
   1   13    4     8     3    1.6661E+02 -1.7186E+00   1.6833E+02  0.000E+00  0.000E+00  0.000E+00  1.01231E+03  2.936E+00  4.257E+01  4.338E+00 -1.321E-01
   1   13    3     8     4    1.6833E+02 -3.2929E+00   1.7163E+02  0.000E+00  0.000E+00  0.000E+00  1.00608E+03  2.952E+00  4.280E+01  4.362E+00 -2.516E-01
   1   13    2     8     5    1.7163E+02 -2.4853E+00   1.7411E+02  0.000E+00  0.000E+00  0.000E+00  9.99846E+02  2.971E+00  4.308E+01  4.390E+00 -1.887E-01
   1   13    1     8     6    1.7411E+02 -1.9577E+00   1.7607E+02  0.000E+00  0.000E+00  0.000E+00  9.94860E+02  2.985E+00  4.328E+01  2.646E+00 -2.466E-01





UNSATURATED ZONE PACKAGE VOLUMETRIC BUDGET FOR  TIME STEP    30 STRESS PERIOD   45
  ------------------------------------------------------------------------------



     CUMULATIVE VOLUMES      L**3       RATES FOR THIS TIME STEP      L**3/T
     ------------------                 ------------------------

           IN:                                      IN:
           ---                                      ---
        INFILTRATION =  1971998857.4927          INFILTRATION =          49.5675

          OUT:                                     OUT:
          ----                                     ----
              UZF ET =  1683852842.4017                UZF ET =          49.5675
        UZF RECHARGE =   216053968.0352          UZF RECHARGE =       0.0000E+00

            IN - OUT =    72092047.0558              IN - OUT =       0.0000E+00

          STORAGE:                                 STORAGE:
          --------                                 --------
      STORAGE CHANGE =    72092018.7694        STORAGE CHANGE =       5.0457E-14

 PERCENT DISCREPANCY IS DIFFERENCE BETWEEN IN-OUT MINUS CHANGE IN STORAGE
 DIVIDED BY THE AVERAGE OF IN AND OUT TIMES 100

 PERCENT DISCREPANCY =           0.00     PERCENT DISCREPANCY =           0.00






1
  VOLUMETRIC BUDGET FOR AGRICULTURAL FIELDS AT  END OF TIME STEP   30, STRESS PERIOD  45
  ------------------------------------------------------------------------------

     CUMULATIVE VOLUMES      L**3       RATES FOR THIS TIME STEP      L**3/T
     ------------------                 ------------------------

           IN:                                      IN:
           ---                                      ---
               AG WELLS  =  1873849984.0000                 AG WELLS  =          48.7200
      DIVERSION SEGMENTS =           0.0000        DIVERSION SEGMENTS =           0.0000
           GW IRRIGATION =           0.0000             GW IRRIGATION =           0.0000
           SW IRRIGATION =           0.0000             SW IRRIGATION =           0.0000
        SYSTEM LOSSES GW =           0.0000          SYSTEM LOSSES GW =           0.0000
        SYSTEM LOSSES SW =           0.0000          SYSTEM LOSSES SW =           0.0000

                TOTAL IN =  1873849984.0000                  TOTAL IN =          48.7200

          OUT:                                     OUT:
          ----                                     ----
               AG WELLS  =           0.0000                 AG WELLS  =           0.0000
      DIVERSION SEGMENTS =           0.0000        DIVERSION SEGMENTS =           0.0000
           GW IRRIGATION =  1873849984.0000             GW IRRIGATION =          48.7200
           SW IRRIGATION =           0.0000             SW IRRIGATION =           0.0000
        SYSTEM LOSSES GW =           0.0000          SYSTEM LOSSES GW =           0.0000
        SYSTEM LOSSES SW =           0.0000          SYSTEM LOSSES SW =           0.0000

               TOTAL OUT =  1873849984.0000                 TOTAL OUT =          48.7200

                IN - OUT =           0.0000                  IN - OUT =           0.0000

     PERCENT DISCREPANCY =           0.00         PERCENT DISCREPANCY =           0.00



1
  VOLUMETRIC BUDGET FOR ENTIRE MODEL AT END OF TIME STEP   30, STRESS PERIOD  45
  ------------------------------------------------------------------------------

     CUMULATIVE VOLUMES      L**3       RATES FOR THIS TIME STEP      L**3/T
     ------------------                 ------------------------

           IN:                                      IN:
           ---                                      ---
             STORAGE     =  2302193408.0000               STORAGE     =          45.8037
       CONSTANT HEAD     =           0.0000         CONSTANT HEAD     =           0.0000
     HEAD DEP BOUNDS     =    33149358.0000       HEAD DEP BOUNDS     =           0.2885
      STREAM LEAKAGE     =  1420433024.0000        STREAM LEAKAGE     =          12.3862
        UZF RECHARGE     =   216053968.0000          UZF RECHARGE     =           0.0000
               GW ET     =           0.0000                 GW ET     =           0.0000
     SURFACE LEAKAGE     =           0.0000       SURFACE LEAKAGE     =           0.0000
           AG WELLS      =           0.0000             AG WELLS      =           0.0000

                TOTAL IN =  3971830016.0000                  TOTAL IN =          58.4783

          OUT:                                     OUT:
          ----                                     ----
             STORAGE     =   876114432.0000               STORAGE     =       1.5236E-02
       CONSTANT HEAD     =           0.0000         CONSTANT HEAD     =           0.0000
     HEAD DEP BOUNDS     =    33790480.0000       HEAD DEP BOUNDS     =           0.2888
      STREAM LEAKAGE     =  1170522752.0000        STREAM LEAKAGE     =           9.4545
        UZF RECHARGE     =           0.0000          UZF RECHARGE     =           0.0000
               GW ET     =    17516984.0000                 GW ET     =           0.0000
     SURFACE LEAKAGE     =           0.0000       SURFACE LEAKAGE     =           0.0000
           AG WELLS      =  1873849984.0000             AG WELLS      =          48.7200

               TOTAL OUT =  3971794432.0000                 TOTAL OUT =          58.4785

                IN - OUT =       35584.0000                  IN - OUT =      -1.6403E-04

     PERCENT DISCREPANCY =           0.00         PERCENT DISCREPANCY =          -0.00






         TIME SUMMARY AT END OF TIME STEP   30 IN STRESS PERIOD   45
                    SECONDS     MINUTES      HOURS       DAYS        YEARS
                    -----------------------------------------------------------
   TIME STEP LENGTH  87667.      1461.1      24.352      1.0147     2.77799E-03
 STRESS PERIOD TIME 2.63000E+06  43833.      730.56      30.440     8.33397E-02
         TOTAL TIME 1.15805E+08 1.93009E+06  32168.      1340.3      3.6696    
1
1
                            STRESS PERIOD NO.   46, LENGTH =   2630000.    
                            -----------------------------------------------

                              NUMBER OF TIME STEPS =    30

                               MULTIPLIER FOR DELT =     1.000

                            INITIAL TIME STEP SIZE =   87666.66    

 REUSING NON-PARAMETER GHB CELLS FROM LAST STRESS PERIOD

      2 GHB CELLS

 REUSING STREAM SEGMENT DATA FROM LAST STRESS PERIOD



            AREAL INFILTRATION RATE
 READING ON UNIT   19 WITH FORMAT: (FREE)              

            1           2           3           4           5           6           7           8           9          10
 ........................................................................................................................
   1   1.0000E-10  2.0000E-10   0.000       0.000       0.000       0.000       0.000       0.000       0.000       0.000    
   2   2.0000E-10  1.0000E-10  2.0000E-10   0.000       0.000      8.0000E-10  8.0000E-10  5.0000E-10   0.000       0.000    
   3    0.000      5.0000E-10  1.0000E-10  1.0000E-10  8.0000E-10  8.0000E-10  5.0000E-10  5.0000E-10   0.000       0.000    
   4   8.0000E-10  5.0000E-10  1.0000E-10  1.0000E-10  1.0000E-10  1.0000E-10  1.0000E-10  1.0000E-10  2.0000E-10   0.000    
   5   8.0000E-10  5.0000E-10  1.0000E-10  1.0000E-10  1.0000E-10  1.0000E-10  1.0000E-10  1.0000E-10  1.0000E-10  1.0000E-10
   6   8.0000E-10  5.0000E-10  5.0000E-10  2.0000E-10  2.0000E-10  1.0000E-10  1.0000E-10  1.0000E-10  1.0000E-10  5.0000E-10
   7   8.0000E-10  5.0000E-10  5.0000E-10  2.0000E-10  2.0000E-10  1.0000E-10  1.0000E-10  2.0000E-10  2.0000E-10   0.000    
   8    0.000      5.0000E-10  5.0000E-10  2.0000E-10  2.0000E-10  1.0000E-10  1.0000E-10  2.0000E-10  5.0000E-10   0.000    
   9    0.000      5.0000E-10  5.0000E-10  2.0000E-10  2.0000E-10  1.0000E-10  1.0000E-10  2.0000E-10  5.0000E-10   0.000    
  10    0.000      5.0000E-10  5.0000E-10  2.0000E-10  2.0000E-10  1.0000E-10  1.0000E-10  2.0000E-10  5.0000E-10  8.0000E-10
  11    0.000      1.0000E-10  1.0000E-10  1.0000E-10  1.0000E-10  1.0000E-10  1.0000E-10  2.0000E-10  5.0000E-10   0.000    
  12   1.0000E-10  1.0000E-10  1.0000E-10  1.0000E-10  1.0000E-10  1.0000E-10  1.0000E-10  1.0000E-10  2.0000E-10   0.000    
  13   1.0000E-10  1.0000E-10  2.0000E-10  2.0000E-10  2.0000E-10  2.0000E-10  2.0000E-10  1.0000E-10  1.0000E-10   0.000    
  14    0.000      2.0000E-10  5.0000E-10  5.0000E-10  5.0000E-10  5.0000E-10  5.0000E-10  2.0000E-10  1.0000E-10   0.000    
  15    0.000       0.000      8.0000E-10  8.0000E-10  8.0000E-10  8.0000E-10   0.000       0.000       0.000       0.000    

                  ET RATE =  7.500000E-08

 USING ET EXTINCTION DEPTH FROM PREVIOUS STRESS PERIOD. CURRENT PERIOD IS:      46

 USING EXTINCTION WATER CONTENT FROM PREVIOUS STRESS PERIOD. CURRENT PERIOD IS:      46

 USING AIR ENTRY PRESSURE FROM PREVIOUS STRESS PERIOD. CURRENT PERIOD IS:      46

 USING ROOT PRESSURE HEAD FROM PREVIOUS STRESS PERIOD. CURRENT PERIOD IS:      46

 USING ROOT ACTIVITY FROM PREVIOUS STRESS PERIOD. CURRENT PERIOD IS:      46

 PROCESSING AG STRESS PERIOD DATA

 READING AG STRESS PERIOD DATA

 READING IRRIGATION WELL

 END PROCESSING AG STRESS PERIOD DATA OPTIONS
 
 SOLVING FOR HEAD 
                                                   Max.-Head-Change                         Max.-Flux-Residual
  Residual-Control   Outer-Iter.   Inner-Iter.     Column Row Layer    Maximum-Head-Change  Column Row Layer    Maximum-Flux-Residual          L2-NORM 
          0                 1           2             5    8     1       0.8313831238E-01       5    8    1         0.4511878970E+01      0.1198195457E+02
          0                 2           2             5    8     1      -0.8086950266E-02       5    8    1        -0.4511781396E+00      0.1198168408E+01
          0                 3           2             5    8     1       0.5506906209E-03       5    8    1         0.3158245765E-01      0.8387182892E-01
          0                 4           1             5    8     1      -0.2191248900E-04       5    8    1        -0.1291723889E-02      0.3430361689E-02

    ------------------------------------------------
       NWT REQUIRED            4 OUTER ITERATIONS 
       AND A TOTAL OF          7 INNER ITERATIONS.
    ------------------------------------------------

 NO OUTPUT CONTROL FOR STRESS PERIOD   46   TIME STEP    1
 
 SOLVING FOR HEAD 
                                                   Max.-Head-Change                         Max.-Flux-Residual
  Residual-Control   Outer-Iter.   Inner-Iter.     Column Row Layer    Maximum-Head-Change  Column Row Layer    Maximum-Flux-Residual          L2-NORM 
          0                 1           2             5    8     1       0.7967204397E-01       5    8    1         0.4320237562E+01      0.1162557683E+02
          0                 2           2             5    8     1      -0.7749786243E-02       5    8    1        -0.4320146486E+00      0.1162533362E+01
          0                 3           2             5    8     1       0.5277309095E-03       5    8    1         0.3024100657E-01      0.8137734793E-01
          0                 4           1             5    8     1      -0.2099890095E-04       5    8    1        -0.1236858490E-02      0.3328336795E-02

    ------------------------------------------------
       NWT REQUIRED            4 OUTER ITERATIONS 
       AND A TOTAL OF          7 INNER ITERATIONS.
    ------------------------------------------------

 NO OUTPUT CONTROL FOR STRESS PERIOD   46   TIME STEP    2
 
 SOLVING FOR HEAD 
                                                   Max.-Head-Change                         Max.-Flux-Residual
  Residual-Control   Outer-Iter.   Inner-Iter.     Column Row Layer    Maximum-Head-Change  Column Row Layer    Maximum-Flux-Residual          L2-NORM 
          0                 1           2             5    8     1       0.7641177974E-01       5    8    1         0.4140120850E+01      0.1128759748E+02
          0                 2           2             5    8     1      -0.7432660115E-02       5    8    1        -0.4140035791E+00      0.1128737887E+01
          0                 3           2             5    8     1       0.5061357106E-03       5    8    1         0.2898022544E-01      0.7901163906E-01
          0                 4           1             5    8     1      -0.2013960811E-04       5    8    1        -0.1185292489E-02      0.3231590646E-02

    ------------------------------------------------
       NWT REQUIRED            4 OUTER ITERATIONS 
       AND A TOTAL OF          7 INNER ITERATIONS.
    ------------------------------------------------

 NO OUTPUT CONTROL FOR STRESS PERIOD   46   TIME STEP    3
 
 SOLVING FOR HEAD 
                                                   Max.-Head-Change                         Max.-Flux-Residual
  Residual-Control   Outer-Iter.   Inner-Iter.     Column Row Layer    Maximum-Head-Change  Column Row Layer    Maximum-Flux-Residual          L2-NORM 
          0                 1           2             5    7     1       0.7421366484E-01       5    8    1         0.3970700623E+01      0.1096670899E+02
          0                 2           2             5    7     1      -0.7218906210E-02       5    8    1        -0.3970621137E+00      0.1096651257E+01
          0                 3           2             5    7     1       0.4915792167E-03       5    8    1         0.2779431709E-01      0.7676555394E-01
          0                 4           1             5    7     1      -0.1956039735E-04       5    8    1        -0.1136788801E-02      0.3139715120E-02

    ------------------------------------------------
       NWT REQUIRED            4 OUTER ITERATIONS 
       AND A TOTAL OF          7 INNER ITERATIONS.
    ------------------------------------------------

 NO OUTPUT CONTROL FOR STRESS PERIOD   46   TIME STEP    4
 
 SOLVING FOR HEAD 
                                                   Max.-Head-Change                         Max.-Flux-Residual
  Residual-Control   Outer-Iter.   Inner-Iter.     Column Row Layer    Maximum-Head-Change  Column Row Layer    Maximum-Flux-Residual          L2-NORM 
          0                 1           2             5    7     1       0.7262523210E-01       5    7    1         0.3856845759E+01      0.1066172380E+02
          0                 2           2             5    7     1      -0.7064404739E-02       5    7    1        -0.3856812489E+00      0.1066154737E+01
          0                 3           2             5    7     1       0.4810581444E-03       5    7    1         0.2699761249E-01      0.7463077518E-01
          0                 4           1             5    7     1      -0.1914175449E-04       5    7    1        -0.1104203745E-02      0.3052401871E-02

    ------------------------------------------------
       NWT REQUIRED            4 OUTER ITERATIONS 
       AND A TOTAL OF          7 INNER ITERATIONS.
    ------------------------------------------------

 NO OUTPUT CONTROL FOR STRESS PERIOD   46   TIME STEP    5
 
 SOLVING FOR HEAD 
                                                   Max.-Head-Change                         Max.-Flux-Residual
  Residual-Control   Outer-Iter.   Inner-Iter.     Column Row Layer    Maximum-Head-Change  Column Row Layer    Maximum-Flux-Residual          L2-NORM 
          0                 1           2             5    7     1       0.7106637477E-01       5    7    1         0.3774301776E+01      0.1037154169E+02
          0                 2           2             5    7     1      -0.6912778903E-02       5    7    1        -0.3774274232E+00      0.1037138328E+01
          0                 3           2             5    7     1       0.4707329040E-03       5    7    1         0.2641983901E-01      0.7259960863E-01
          0                 4           1             5    7     1      -0.1873090380E-04       5    7    1        -0.1080572796E-02      0.2969330570E-02

    ------------------------------------------------
       NWT REQUIRED            4 OUTER ITERATIONS 
       AND A TOTAL OF          7 INNER ITERATIONS.
    ------------------------------------------------

 NO OUTPUT CONTROL FOR STRESS PERIOD   46   TIME STEP    6
 
 SOLVING FOR HEAD 
                                                   Max.-Head-Change                         Max.-Flux-Residual
  Residual-Control   Outer-Iter.   Inner-Iter.     Column Row Layer    Maximum-Head-Change  Column Row Layer    Maximum-Flux-Residual          L2-NORM 
          0                 1           2             5    8     1       0.1475568702E+00       5    8    1         0.8065177967E+01      0.1243274406E+02
          0                 2           2             5    8     1      -0.1434640224E-01       5    8    1        -0.8061365347E+00      0.1243003141E+01
          0                 3           2             5    8     1       0.9762275864E-03       5    8    1         0.5638818443E-01      0.8698347403E-01
          0                 4           1             5    8     1      -0.3879858421E-04       5    8    1        -0.2303498119E-02      0.3555825061E-02

    ------------------------------------------------
       NWT REQUIRED            4 OUTER ITERATIONS 
       AND A TOTAL OF          7 INNER ITERATIONS.
    ------------------------------------------------

 NO OUTPUT CONTROL FOR STRESS PERIOD   46   TIME STEP    7
 
 SOLVING FOR HEAD 
                                                   Max.-Head-Change                         Max.-Flux-Residual
  Residual-Control   Outer-Iter.   Inner-Iter.     Column Row Layer    Maximum-Head-Change  Column Row Layer    Maximum-Flux-Residual          L2-NORM 
          0                 1           2             5    8     1       0.1407405739E+00       5    8    1         0.7685742039E+01      0.1203865885E+02
          0                 2           2             5    8     1       0.2811643274E-01       5    8    1         0.1558984725E+01      0.1813551296E+01
          0                 3           2             5    8     1       0.7378411051E-02       5    8    1         0.4064632299E+00      0.4116698621E+00
          0                 4           1             5    8     1       0.1936279455E-02       5    8    1         0.1068245930E+00      0.1068548088E+00
          0                 5           1             5    8     1       0.5081285169E-03       5    8    1         0.2802714979E-01      0.2802796119E-01
          0                 6           1             5    8     1       0.1333457596E-03       5    8    1         0.7355239669E-02      0.7355372086E-02
          0                 7           1             5    8     1       0.3499329819E-04       5    8    1         0.1930197096E-02      0.1930233593E-02

    ------------------------------------------------
       NWT REQUIRED            7 OUTER ITERATIONS 
       AND A TOTAL OF         10 INNER ITERATIONS.
    ------------------------------------------------

 NO OUTPUT CONTROL FOR STRESS PERIOD   46   TIME STEP    8
 
 SOLVING FOR HEAD 
                                                   Max.-Head-Change                         Max.-Flux-Residual
  Residual-Control   Outer-Iter.   Inner-Iter.     Column Row Layer    Maximum-Head-Change  Column Row Layer    Maximum-Flux-Residual          L2-NORM 
          0                 1           2             5    8     1       0.1308407223E+00       5    8    1         0.7134121832E+01      0.1156784377E+02
          0                 2           2             5    8     1       0.1365551670E-01       5    8    1         0.7617786140E+00      0.1187205486E+01
          0                 3           2             5    8     1      -0.1327642739E-02       5    8    1        -0.7590758197E-01      0.9925581753E-01
          0                 4           1             5    8     1       0.9034246261E-04       5    8    1         0.5293934935E-02      0.5914360380E-02

    ------------------------------------------------
       NWT REQUIRED            4 OUTER ITERATIONS 
       AND A TOTAL OF          7 INNER ITERATIONS.
    ------------------------------------------------

 NO OUTPUT CONTROL FOR STRESS PERIOD   46   TIME STEP    9
 
 SOLVING FOR HEAD 
                                                   Max.-Head-Change                         Max.-Flux-Residual
  Residual-Control   Outer-Iter.   Inner-Iter.     Column Row Layer    Maximum-Head-Change  Column Row Layer    Maximum-Flux-Residual          L2-NORM 
          0                 1           2             5    8     1       0.1232762055E+00       5    8    1         0.6713359938E+01      0.1117959754E+02
          0                 2           2             5    8     1      -0.1198556653E-01       5    8    1        -0.6710091770E+00      0.1117747285E+01
          0                 3           2             5    8     1       0.8155809688E-03       5    8    1         0.4693613657E-01      0.7822158731E-01
          0                 4           1             5    8     1      -0.3241394114E-04       5    8    1        -0.1917366242E-02      0.3197872581E-02

    ------------------------------------------------
       NWT REQUIRED            4 OUTER ITERATIONS 
       AND A TOTAL OF          7 INNER ITERATIONS.
    ------------------------------------------------

 NO OUTPUT CONTROL FOR STRESS PERIOD   46   TIME STEP   10
 
 SOLVING FOR HEAD 
                                                   Max.-Head-Change                         Max.-Flux-Residual
  Residual-Control   Outer-Iter.   Inner-Iter.     Column Row Layer    Maximum-Head-Change  Column Row Layer    Maximum-Flux-Residual          L2-NORM 
          0                 1           2             5    8     1       0.1177357412E+00       5    8    1         0.6405963468E+01      0.1085691320E+02
          0                 2           2             5    8     1      -0.1144687124E-01       5    8    1        -0.6402826665E+00      0.1085491803E+01
          0                 3           2             5    8     1       0.7789245372E-03       5    8    1         0.4478684106E-01      0.7596497109E-01
          0                 4           1             5    8     1      -0.3095709000E-04       5    8    1        -0.1829564338E-02      0.3105661845E-02

    ------------------------------------------------
       NWT REQUIRED            4 OUTER ITERATIONS 
       AND A TOTAL OF          7 INNER ITERATIONS.
    ------------------------------------------------

 NO OUTPUT CONTROL FOR STRESS PERIOD   46   TIME STEP   11
 
 SOLVING FOR HEAD 
                                                   Max.-Head-Change                         Max.-Flux-Residual
  Residual-Control   Outer-Iter.   Inner-Iter.     Column Row Layer    Maximum-Head-Change  Column Row Layer    Maximum-Flux-Residual          L2-NORM 
          0                 1           2             5    8     1       0.1125430929E+00       5    8    1         0.6118065473E+01      0.1055279855E+02
          0                 2           2             5    8     1      -0.1094199589E-01       5    8    1        -0.6115053219E+00      0.1055092376E+01
          0                 3           2             5    8     1       0.7445694193E-03       5    8    1         0.4277388786E-01      0.7383817116E-01
          0                 4           1             5    8     1      -0.2959170107E-04       5    8    1        -0.1747332298E-02      0.3018755627E-02

    ------------------------------------------------
       NWT REQUIRED            4 OUTER ITERATIONS 
       AND A TOTAL OF          7 INNER ITERATIONS.
    ------------------------------------------------

 NO OUTPUT CONTROL FOR STRESS PERIOD   46   TIME STEP   12
 
 SOLVING FOR HEAD 
                                                   Max.-Head-Change                         Max.-Flux-Residual
  Residual-Control   Outer-Iter.   Inner-Iter.     Column Row Layer    Maximum-Head-Change  Column Row Layer    Maximum-Flux-Residual          L2-NORM 
          0                 1           2             5    8     1       0.1076728516E+00       5    8    1         0.5848231748E+01      0.1026569917E+02
          0                 2           2             5    8     1      -0.1046846959E-01       5    8    1        -0.5845337570E+00      0.1026393645E+01
          0                 3           2             5    8     1       0.7123474843E-03       5    8    1         0.4088724731E-01      0.7183034865E-01
          0                 4           1             5    8     1      -0.2831109176E-04       5    8    1        -0.1670260369E-02      0.2936709106E-02

    ------------------------------------------------
       NWT REQUIRED            4 OUTER ITERATIONS 
       AND A TOTAL OF          7 INNER ITERATIONS.
    ------------------------------------------------

 NO OUTPUT CONTROL FOR STRESS PERIOD   46   TIME STEP   13
 
 SOLVING FOR HEAD 
                                                   Max.-Head-Change                         Max.-Flux-Residual
  Residual-Control   Outer-Iter.   Inner-Iter.     Column Row Layer    Maximum-Head-Change  Column Row Layer    Maximum-Flux-Residual          L2-NORM 
          0                 1           2             5    8     1       0.1031019376E+00       5    8    1         0.5595160436E+01      0.9994214529E+01
          0                 2           2             5    8     1       0.2299590461E-01       5    8    1         0.1278035822E+01      0.1522872405E+01
          0                 3           2             5    8     1       0.6034119988E-02       5    8    1         0.3322286873E+00      0.3373227719E+00
          0                 4           1             5    8     1       0.1583359613E-02       5    8    1         0.8737018075E-01      0.8739795393E-01
          0                 5           1             5    8     1       0.4154755412E-03       5    8    1         0.2291892892E-01      0.2291944987E-01
          0                 6           1             5    8     1       0.1090213232E-03       5    8    1         0.6014194822E-02      0.6014248524E-02
          0                 7           1             5    8     1       0.2860733885E-04       5    8    1         0.1578126772E-02      0.1578142836E-02

    ------------------------------------------------
       NWT REQUIRED            7 OUTER ITERATIONS 
       AND A TOTAL OF         10 INNER ITERATIONS.
    ------------------------------------------------

 NO OUTPUT CONTROL FOR STRESS PERIOD   46   TIME STEP   14
 
 SOLVING FOR HEAD 
                                                   Max.-Head-Change                         Max.-Flux-Residual
  Residual-Control   Outer-Iter.   Inner-Iter.     Column Row Layer    Maximum-Head-Change  Column Row Layer    Maximum-Flux-Residual          L2-NORM 
          0                 1           2             4    8     1       0.1374664492E+00       4    8    1         0.7351161783E+01      0.1165414316E+02
          0                 2           2             5    8     1       0.2570954424E-01       5    8    1         0.1424130046E+01      0.1606548839E+01
          0                 3           2             5    7     1       0.4459969935E-03       5    7    1         0.2518345248E-01      0.5477415500E-01
          0                 4           1             5    8     1      -0.2896625057E-04       5    8    1        -0.1626031287E-02      0.2683422527E-02

    ------------------------------------------------
       NWT REQUIRED            4 OUTER ITERATIONS 
       AND A TOTAL OF          7 INNER ITERATIONS.
    ------------------------------------------------

 NO OUTPUT CONTROL FOR STRESS PERIOD   46   TIME STEP   15
 
 SOLVING FOR HEAD 
                                                   Max.-Head-Change                         Max.-Flux-Residual
  Residual-Control   Outer-Iter.   Inner-Iter.     Column Row Layer    Maximum-Head-Change  Column Row Layer    Maximum-Flux-Residual          L2-NORM 
          0                 1           2             4    8     1       0.1459732089E+00       4    8    1         0.7813763098E+01      0.1255915389E+02
          0                 2           2             5    7     1       0.2740536278E-01       5    7    1         0.1528468500E+01      0.1896938006E+01
          0                 3           2             5    7     1       0.3353701187E-02       5    7    1         0.1839231874E+00      0.2002672007E+00
          0                 4           2             5    7     1      -0.3260550157E-03       5    7    1        -0.1846109869E-01      0.1871878052E-01
          0                 5           1             5    7     1       0.2218717324E-04       5    7    1         0.1294452319E-02      0.1295045583E-02

    ------------------------------------------------
       NWT REQUIRED            5 OUTER ITERATIONS 
       AND A TOTAL OF          9 INNER ITERATIONS.
    ------------------------------------------------

 NO OUTPUT CONTROL FOR STRESS PERIOD   46   TIME STEP   16
 
 SOLVING FOR HEAD 
                                                   Max.-Head-Change                         Max.-Flux-Residual
  Residual-Control   Outer-Iter.   Inner-Iter.     Column Row Layer    Maximum-Head-Change  Column Row Layer    Maximum-Flux-Residual          L2-NORM 
          0                 1           2             5    7     1       0.1430693224E+00       5    7    1         0.7733658386E+01      0.1346412362E+02
          0                 2           2             5    7     1      -0.1391008432E-01       5    7    1        -0.7730006171E+00      0.1345876152E+01
          0                 3           2             5    7     1       0.9465303841E-03       5    7    1         0.5406988246E-01      0.9415673883E-01
          0                 4           1             5    7     1      -0.3761789794E-04       5    7    1        -0.2208764267E-02      0.3847330909E-02

    ------------------------------------------------
       NWT REQUIRED            4 OUTER ITERATIONS 
       AND A TOTAL OF          7 INNER ITERATIONS.
    ------------------------------------------------

 NO OUTPUT CONTROL FOR STRESS PERIOD   46   TIME STEP   17
 
 SOLVING FOR HEAD 
                                                   Max.-Head-Change                         Max.-Flux-Residual
  Residual-Control   Outer-Iter.   Inner-Iter.     Column Row Layer    Maximum-Head-Change  Column Row Layer    Maximum-Flux-Residual          L2-NORM 
          0                 1           2             5    7     1       0.1389579964E+00       5    7    1         0.7435223407E+01      0.1471149471E+02
          0                 2           2             5    7     1      -0.1350967485E-01       5    7    1        -0.7431590733E+00      0.1439542161E+01
          0                 3           2             5    7     1       0.9188260063E-03       5    7    1         0.5198220709E-01      0.9066592920E-01
          0                 4           1             5    7     1      -0.3651618426E-04       5    7    1        -0.2123456821E-02      0.3825289748E-02

    ------------------------------------------------
       NWT REQUIRED            4 OUTER ITERATIONS 
       AND A TOTAL OF          7 INNER ITERATIONS.
    ------------------------------------------------

 NO OUTPUT CONTROL FOR STRESS PERIOD   46   TIME STEP   18
 
 SOLVING FOR HEAD 
                                                   Max.-Head-Change                         Max.-Flux-Residual
  Residual-Control   Outer-Iter.   Inner-Iter.     Column Row Layer    Maximum-Head-Change  Column Row Layer    Maximum-Flux-Residual          L2-NORM 
          0                 1           2             5    7     1       0.1350393781E+00       5    7    1         0.7221577813E+01      0.1434237343E+02
          0                 2           2             4    8     1       0.3253535734E-01       4    8    1         0.1775868155E+01      0.2349229248E+01
          0                 3           2             4    8     1       0.8738412990E-02       4    8    1         0.4732346729E+00      0.5618537756E+00
          0                 4           2             4    8     1       0.2346987777E-02       4    8    1         0.1273346600E+00      0.1490485431E+00
          0                 5           2             4    8     1       0.6303607546E-03       4    8    1         0.3419059560E-01      0.3977190298E-01
          0                 6           2             4    8     1       0.1693041165E-03       4    8    1         0.9183378132E-02      0.1061991100E-01
          0                 7           1             4    8     1       0.4547221920E-04       4    8    1         0.2466484747E-02      0.2836232938E-02

    ------------------------------------------------
       NWT REQUIRED            7 OUTER ITERATIONS 
       AND A TOTAL OF         13 INNER ITERATIONS.
    ------------------------------------------------

 NO OUTPUT CONTROL FOR STRESS PERIOD   46   TIME STEP   19
 
 SOLVING FOR HEAD 
                                                   Max.-Head-Change                         Max.-Flux-Residual
  Residual-Control   Outer-Iter.   Inner-Iter.     Column Row Layer    Maximum-Head-Change  Column Row Layer    Maximum-Flux-Residual          L2-NORM 
          0                 1           2             5    7     1       0.1319325337E+00       5    7    1         0.7053764447E+01      0.1389957618E+02
          0                 2           2             5    6     1       0.2783445258E-01       5    6    1         0.1541596975E+01      0.1794482029E+01
          0                 3           2             5    6     1      -0.2724012051E-02       5    6    1        -0.1539321473E+00      0.1776265374E+00
          0                 4           2             5    7     1      -0.2620890043E-03       5    7    1        -0.1500023693E-01      0.1891585870E-01
          0                 5           1             5    7     1      -0.7401004595E-04       5    7    1        -0.4192165911E-02      0.4218289418E-02

    ------------------------------------------------
       NWT REQUIRED            5 OUTER ITERATIONS 
       AND A TOTAL OF          9 INNER ITERATIONS.
    ------------------------------------------------

 NO OUTPUT CONTROL FOR STRESS PERIOD   46   TIME STEP   20
 
 SOLVING FOR HEAD 
                                                   Max.-Head-Change                         Max.-Flux-Residual
  Residual-Control   Outer-Iter.   Inner-Iter.     Column Row Layer    Maximum-Head-Change  Column Row Layer    Maximum-Flux-Residual          L2-NORM 
          0                 1           2             4    7     1       0.1585400714E+00       4    7    1         0.8401792375E+01      0.1543589158E+02
          0                 2           2             5    7     1       0.3413438013E-01       5    7    1         0.1907018831E+01      0.2309058586E+01
          0                 3           2             5    7     1       0.8950887440E-02       5    7    1         0.4924343018E+00      0.5009634947E+00
          0                 4           2             5    7     1       0.2348057723E-02       5    7    1         0.1296072966E+00      0.1296709092E+00
          0                 5           2             5    7     1       0.6162185659E-03       5    7    1         0.3398214069E-01      0.3401525984E-01
          0                 6           2             5    7     1       0.1617974791E-03       5    7    1         0.8918850107E-02      0.8942533860E-02
          0                 7           1             5    7     1       0.4250606380E-04       5    7    1         0.2341920890E-02      0.2355090431E-02

    ------------------------------------------------
       NWT REQUIRED            7 OUTER ITERATIONS 
       AND A TOTAL OF         13 INNER ITERATIONS.
    ------------------------------------------------

 NO OUTPUT CONTROL FOR STRESS PERIOD   46   TIME STEP   21
 
 SOLVING FOR HEAD 
                                                   Max.-Head-Change                         Max.-Flux-Residual
  Residual-Control   Outer-Iter.   Inner-Iter.     Column Row Layer    Maximum-Head-Change  Column Row Layer    Maximum-Flux-Residual          L2-NORM 
          0                 1           2             4    7     1       0.1567915830E+00       4    7    1         0.8311822247E+01      0.1511282010E+02
          0                 2           2             5    8     1       0.2297171402E-01       5    8    1         0.1278206859E+01      0.1810472660E+01
          0                 3           2             5    8     1       0.6027488889E-02       5    8    1         0.3317800268E+00      0.3437706788E+00
          0                 4           1             5    8     1       0.1581548232E-02       5    8    1         0.8728495452E-01      0.8735703063E-01
          0                 5           1             5    8     1       0.4149813030E-03       5    8    1         0.2289278779E-01      0.2289332048E-01
          0                 6           1             5    8     1       0.1088866760E-03       5    8    1         0.6006861873E-02      0.6007024707E-02
          0                 7           1             5    8     1       0.2857070559E-04       5    8    1         0.1576124109E-02      0.1576167539E-02

    ------------------------------------------------
       NWT REQUIRED            7 OUTER ITERATIONS 
       AND A TOTAL OF         10 INNER ITERATIONS.
    ------------------------------------------------

 NO OUTPUT CONTROL FOR STRESS PERIOD   46   TIME STEP   22
 
 SOLVING FOR HEAD 
                                                   Max.-Head-Change                         Max.-Flux-Residual
  Residual-Control   Outer-Iter.   Inner-Iter.     Column Row Layer    Maximum-Head-Change  Column Row Layer    Maximum-Flux-Residual          L2-NORM 
          0                 1           2             4    7     1       0.1539043629E+00       4    7    1         0.8156477164E+01      0.1480315773E+02
          0                 2           2             4    7     1       0.2455346909E-01       4    7    1         0.1356984772E+01      0.2161283671E+01
          0                 3           2             4    7     1       0.6568429437E-02       4    7    1         0.3558415713E+00      0.3653050148E+00
          0                 4           1             4    7     1       0.1756928066E-02       4    7    1         0.9564342601E-01      0.9569160263E-01
          0                 5           1             4    7     1       0.4699441145E-03       4    7    1         0.2556389207E-01      0.2556486965E-01
          0                 6           1             4    7     1       0.1257009331E-03       4    7    1         0.6837810432E-02      0.6838106804E-02
          0                 7           1             4    7     1       0.3362256111E-04       4    7    1         0.1828973012E-02      0.1829054607E-02

    ------------------------------------------------
       NWT REQUIRED            7 OUTER ITERATIONS 
       AND A TOTAL OF         10 INNER ITERATIONS.
    ------------------------------------------------

 NO OUTPUT CONTROL FOR STRESS PERIOD   46   TIME STEP   23
 
 SOLVING FOR HEAD 
                                                   Max.-Head-Change                         Max.-Flux-Residual
  Residual-Control   Outer-Iter.   Inner-Iter.     Column Row Layer    Maximum-Head-Change  Column Row Layer    Maximum-Flux-Residual          L2-NORM 
          0                 1           2             4    7     1       0.1488605866E+00       4    7    1         0.7868864910E+01      0.1470958130E+02
          0                 2           2             4    6     1       0.2074065738E-01       4    6    1         0.1125539040E+01      0.1768410891E+01
          0                 3           2             4    6     1       0.5532767007E-02       4    6    1         0.3023575425E+00      0.3240964905E+00
          0                 4           2             4    6     1       0.1475913538E-02       4    6    1         0.8038481415E-01      0.8071547984E-01
          0                 5           2             4    6     1       0.3937132376E-03       4    6    1         0.2146430011E-01      0.2146903034E-01
          0                 6           1             4    6     1       0.1050265535E-03       4    6    1         0.5724511614E-02      0.5725630377E-02
          0                 7           1             4    6     1       0.2801678353E-04       4    6    1         0.1527114010E-02      0.1527411833E-02

    ------------------------------------------------
       NWT REQUIRED            7 OUTER ITERATIONS 
       AND A TOTAL OF         12 INNER ITERATIONS.
    ------------------------------------------------

 NO OUTPUT CONTROL FOR STRESS PERIOD   46   TIME STEP   24
 
 SOLVING FOR HEAD 
                                                   Max.-Head-Change                         Max.-Flux-Residual
  Residual-Control   Outer-Iter.   Inner-Iter.     Column Row Layer    Maximum-Head-Change  Column Row Layer    Maximum-Flux-Residual          L2-NORM 
          0                 1           2             4    7     1       0.1464705186E+00       4    7    1         0.7692010885E+01      0.1579201007E+02
          0                 2           2             4    8     1       0.3153651495E-01       4    8    1         0.1726414151E+01      0.2201159607E+01
          0                 3           2             4    8     1       0.8469578372E-02       4    8    1         0.4583508157E+00      0.4729754496E+00
          0                 4           2             4    8     1       0.2274637014E-02       4    8    1         0.1234333223E+00      0.1239739756E+00
          0                 5           2             4    8     1       0.6108891378E-03       4    8    1         0.3313577435E-01      0.3323892464E-01
          0                 6           2             4    8     1       0.1640638099E-03       4    8    1         0.8899340684E-02      0.8925562721E-02
          0                 7           1             4    8     1       0.4406190543E-04       4    8    1         0.2390039103E-02      0.2396774302E-02

    ------------------------------------------------
       NWT REQUIRED            7 OUTER ITERATIONS 
       AND A TOTAL OF         13 INNER ITERATIONS.
    ------------------------------------------------

 NO OUTPUT CONTROL FOR STRESS PERIOD   46   TIME STEP   25
 
 SOLVING FOR HEAD 
                                                   Max.-Head-Change                         Max.-Flux-Residual
  Residual-Control   Outer-Iter.   Inner-Iter.     Column Row Layer    Maximum-Head-Change  Column Row Layer    Maximum-Flux-Residual          L2-NORM 
          0                 1           2             4    7     1       0.1458939709E+00       4    7    1         0.7668147598E+01      0.1547741024E+02
          0                 2           2             5    6     1       0.2639159634E-01       5    6    1         0.1464742671E+01      0.1887321085E+01
          0                 3           2             5    6     1       0.6946093693E-02       5    6    1         0.3815399842E+00      0.3934989898E+00
          0                 4           2             5    6     1       0.1828986724E-02       5    6    1         0.1006752748E+00      0.1018763479E+00
          0                 5           2             5    6     1       0.4818046529E-03       5    6    1         0.2650225041E-01      0.2689108580E-01
          0                 6           2             5    6     1       0.1269756244E-03       5    6    1         0.6982149177E-02      0.7110250181E-02
          0                 7           1             5    6     1       0.3347779171E-04       5    6    1         0.1840303890E-02      0.1881476337E-02

    ------------------------------------------------
       NWT REQUIRED            7 OUTER ITERATIONS 
       AND A TOTAL OF         13 INNER ITERATIONS.
    ------------------------------------------------

 NO OUTPUT CONTROL FOR STRESS PERIOD   46   TIME STEP   26
 
 SOLVING FOR HEAD 
                                                   Max.-Head-Change                         Max.-Flux-Residual
  Residual-Control   Outer-Iter.   Inner-Iter.     Column Row Layer    Maximum-Head-Change  Column Row Layer    Maximum-Flux-Residual          L2-NORM 
          0                 1           2             4    7     1       0.1445986784E+00       4    7    1         0.7602603867E+01      0.1518971269E+02
          0                 2           2             5    7     1       0.3049720005E-01       5    7    1         0.1692994543E+01      0.2214929871E+01
          0                 3           2             5    7     1       0.7997849209E-02       5    7    1         0.4410014416E+00      0.4543222621E+00
          0                 4           2             5    7     1       0.2097435849E-02       5    7    1         0.1157394577E+00      0.1158715817E+00
          0                 5           2             5    7     1       0.5500526395E-03       5    7    1         0.3035528468E-01      0.3035634687E-01
          0                 6           2             5    7     1       0.1442513478E-03       5    7    1         0.7960002771E-02      0.7960356928E-02
          0                 7           1             5    7     1       0.3782992896E-04       5    7    1         0.2087530998E-02      0.2087754107E-02

    ------------------------------------------------
       NWT REQUIRED            7 OUTER ITERATIONS 
       AND A TOTAL OF         13 INNER ITERATIONS.
    ------------------------------------------------

 NO OUTPUT CONTROL FOR STRESS PERIOD   46   TIME STEP   27
 
 SOLVING FOR HEAD 
                                                   Max.-Head-Change                         Max.-Flux-Residual
  Residual-Control   Outer-Iter.   Inner-Iter.     Column Row Layer    Maximum-Head-Change  Column Row Layer    Maximum-Flux-Residual          L2-NORM 
          0                 1           2             4    7     1       0.1436736994E+00       4    7    1         0.7559313374E+01      0.1491307270E+02
          0                 2           2             4    7     1       0.3052643557E-01       4    7    1         0.1678463594E+01      0.2032641511E+01
          0                 3           2             4    7     1       0.8164536040E-02       4    7    1         0.4430051543E+00      0.4503400813E+00
          0                 4           1             4    7     1       0.2183668130E-02       4    7    1         0.1188543481E+00      0.1188909940E+00
          0                 5           1             4    7     1       0.5840386850E-03       4    7    1         0.3177326860E-01      0.3177420335E-01
          0                 6           1             4    7     1       0.1562056142E-03       4    7    1         0.8498156139E-02      0.8498383732E-02
          0                 7           1             4    7     1       0.4177838661E-04       4    7    1         0.2272883817E-02      0.2272947773E-02

    ------------------------------------------------
       NWT REQUIRED            7 OUTER ITERATIONS 
       AND A TOTAL OF         10 INNER ITERATIONS.
    ------------------------------------------------

 NO OUTPUT CONTROL FOR STRESS PERIOD   46   TIME STEP   28
 
 SOLVING FOR HEAD 
                                                   Max.-Head-Change                         Max.-Flux-Residual
  Residual-Control   Outer-Iter.   Inner-Iter.     Column Row Layer    Maximum-Head-Change  Column Row Layer    Maximum-Flux-Residual          L2-NORM 
          0                 1           2             4    7     1       0.1393186806E+00       4    7    1         0.7325348274E+01      0.1464867210E+02
          0                 2           2             4    6     1       0.1502778152E-01       4    6    1         0.8191110604E+00      0.1457284552E+01
          0                 3           2             4    6     1       0.4008564785E-02       4    6    1         0.2187742847E+00      0.2379235308E+00
          0                 4           2             4    6     1       0.1069257409E-02       4    6    1         0.5825862889E-01      0.5847115027E-01
          0                 5           2             4    6     1       0.2852173601E-03       4    6    1         0.1554954137E-01      0.1555030038E-01
          0                 6           1             4    6     1       0.7607984513E-04       4    6    1         0.4147050365E-02      0.4147203316E-02

    ------------------------------------------------
       NWT REQUIRED            6 OUTER ITERATIONS 
       AND A TOTAL OF         11 INNER ITERATIONS.
    ------------------------------------------------

 NO OUTPUT CONTROL FOR STRESS PERIOD   46   TIME STEP   29
 
 SOLVING FOR HEAD 
                                                   Max.-Head-Change                         Max.-Flux-Residual
  Residual-Control   Outer-Iter.   Inner-Iter.     Column Row Layer    Maximum-Head-Change  Column Row Layer    Maximum-Flux-Residual          L2-NORM 
          0                 1           2             4    7     1       0.1370259591E+00       4    7    1         0.7205458443E+01      0.1438819982E+02
          0                 2           2             4    6     1       0.3346592166E-01       4    6    1         0.1842316794E+01      0.2204975951E+01
          0                 3           2             4    7     1       0.8975737378E-03       4    7    1         0.5114220807E-01      0.9670597844E-01
          0                 4           1             4    6     1       0.5271699659E-04       4    6    1         0.3091230860E-02      0.5145408045E-02

    ------------------------------------------------
       NWT REQUIRED            4 OUTER ITERATIONS 
       AND A TOTAL OF          7 INNER ITERATIONS.
    ------------------------------------------------

 NO OUTPUT CONTROL FOR STRESS PERIOD   46   TIME STEP   30



 STREAM LISTING     PERIOD     46   STEP       30

 LAYER ROW COL. STREAM  RCH.  FLOW INTO     FLOW TO   FLOW OUT OF   OVRLND.     DIRECT     STREAM       STREAM     STREAM     STREAM   STREAMBED  STREAMBED
                SEG.NO.  NO.  STRM. RCH.    AQUIFER    STRM. RCH.    RUNOFF     PRECIP       ET          HEAD       DEPTH      WIDTH   CONDCTNC.   GRADIENT

   1    1    1     1     1    1.9000E+01  2.1427E-01   1.8786E+01  0.000E+00  0.000E+00  0.000E+00  1.09413E+03  1.082E+00  1.166E+01  5.249E-02  1.361E+00
   1    2    2     1     2    1.8786E+01  3.3054E-01   1.8455E+01  0.000E+00  0.000E+00  0.000E+00  1.08914E+03  1.077E+00  1.158E+01  8.107E-02  1.359E+00
   1    3    3     1     3    1.8455E+01  2.8064E-01   1.8175E+01  0.000E+00  0.000E+00  0.000E+00  1.08349E+03  1.072E+00  1.149E+01  6.892E-02  1.357E+00
   1    3    4     1     4    1.8175E+01  2.5740E-01   1.7917E+01  0.000E+00  0.000E+00  0.000E+00  1.07848E+03  1.068E+00  1.140E+01  6.328E-02  1.356E+00
   1    4    5     2     1    1.5917E+01  3.0542E-01   1.5612E+01  0.000E+00  0.000E+00  0.000E+00  1.07285E+03  9.157E-01  1.200E+01  7.800E-02  1.305E+00
   1    5    6     2     2    1.5612E+01  2.3438E-01   1.5377E+01  0.000E+00  0.000E+00  0.000E+00  1.06742E+03  9.063E-01  1.200E+01  6.000E-02  1.302E+00
   1    6    6     2     3    1.5377E+01  2.3388E-01   1.5143E+01  0.000E+00  0.000E+00  0.000E+00  1.06269E+03  8.980E-01  1.200E+01  6.000E-02  1.299E+00
   1    7    6     2     4    1.5143E+01  2.3338E-01   1.4910E+01  0.000E+00  0.000E+00  0.000E+00  1.05797E+03  8.897E-01  1.200E+01  6.000E-02  1.297E+00
   1    8    6     2     5    1.4910E+01  2.3289E-01   1.4677E+01  0.000E+00  0.000E+00  0.000E+00  1.05324E+03  8.814E-01  1.200E+01  6.000E-02  1.294E+00
   1    3    5     3     1    2.0000E+00  2.8252E-01   1.7175E+00  0.000E+00  0.000E+00  0.000E+00  1.07555E+03  1.909E+00  9.636E+00  7.227E-02  1.955E+00
   1    3    6     3     2    1.7175E+00  2.4905E-01   1.4684E+00  0.000E+00  0.000E+00  0.000E+00  1.07264E+03  1.727E+00  8.909E+00  6.682E-02  1.864E+00
   1    3    7     3     3    1.4684E+00  1.9718E-01   1.2712E+00  0.000E+00  0.000E+00  0.000E+00  1.06987E+03  1.555E+00  8.218E+00  5.547E-02  1.777E+00
   1    4    8     3     4    1.2712E+00  2.2567E-01   1.0456E+00  0.000E+00  0.000E+00  0.000E+00  1.06682E+03  1.364E+00  7.455E+00  6.709E-02  1.682E+00
   1    5    8     3     5    1.0456E+00  1.5790E-01   8.8768E-01  0.000E+00  0.000E+00  0.000E+00  1.06362E+03  1.164E+00  6.655E+00  4.991E-02  1.582E+00
   1    6    8     3     6    8.8768E-01  5.5980E-02   8.3170E-01  0.000E+00  0.000E+00  0.000E+00  1.06158E+03  1.036E+00  6.145E+00  1.844E-02  1.518E+00
   1    5   10     4     1    1.0000E+01  9.0919E-02   9.9091E+00  0.000E+00  0.000E+00  0.000E+00  1.07836E+03  6.368E-01  1.000E+01  2.500E-02  1.212E+00
   1    5    9     4     2    9.9091E+00  1.8158E-01   9.7275E+00  0.000E+00  0.000E+00  0.000E+00  1.07154E+03  6.315E-01  1.000E+01  5.000E-02  1.211E+00
   1    6    8     4     3    9.7275E+00  1.2689E-01   9.6006E+00  0.000E+00  0.000E+00  0.000E+00  1.06381E+03  6.256E-01  1.000E+01  3.500E-02  1.209E+00
   1    6    8     5     1    1.0432E+01  2.2686E-01   1.0205E+01  0.000E+00  0.000E+00  0.000E+00  1.05868E+03  6.790E-01  1.542E+01  6.166E-02  1.226E+00
   1    7    7     5     2    1.0205E+01  2.7894E-01   9.9265E+00  0.000E+00  0.000E+00  0.000E+00  1.05417E+03  6.732E-01  1.519E+01  7.594E-02  1.224E+00
   1    8    7     5     3    9.9265E+00  1.9221E-01   9.7343E+00  0.000E+00  0.000E+00  0.000E+00  1.04992E+03  6.676E-01  1.497E+01  5.241E-02  1.223E+00
   1    8    6     5     4    9.7343E+00  1.3577E-01   9.5985E+00  0.000E+00  0.000E+00  0.000E+00  1.04691E+03  6.637E-01  1.482E+01  3.706E-02  1.221E+00
   1    9    6     6     1    2.4276E+01  2.5176E-01   2.4024E+01  0.000E+00  0.000E+00  0.000E+00  1.04392E+03  1.196E+00  1.200E+01  6.000E-02  1.399E+00
   1   10    7     6     2    2.4024E+01  2.5131E-01   2.3773E+01  0.000E+00  0.000E+00  0.000E+00  1.03937E+03  1.188E+00  1.200E+01  6.000E-02  1.396E+00
   1   11    7     6     3    2.3773E+01  2.5086E-01   2.3522E+01  0.000E+00  0.000E+00  0.000E+00  1.03482E+03  1.181E+00  1.200E+01  6.000E-02  1.394E+00
   1   12    7     6     4    2.3522E+01  2.5041E-01   2.3271E+01  0.000E+00  0.000E+00  0.000E+00  1.03026E+03  1.173E+00  1.200E+01  6.000E-02  1.391E+00
   1   13    7     6     5    2.3271E+01  1.1972E-02   2.3259E+01  0.000E+00  0.000E+00  0.000E+00  1.02708E+03  1.169E+00  1.200E+01  2.400E-02  1.663E-01
   1   14    9     7     1    1.5000E+02  1.3786E+00   1.4862E+02  0.000E+00  0.000E+00  0.000E+00  1.03987E+03  2.288E+00  5.529E+01  5.593E-01  8.216E-01
   1   13    8     7     2    1.4862E+02  1.9895E+00   1.4663E+02  0.000E+00  0.000E+00  0.000E+00  1.03478E+03  2.279E+00  5.525E+01  6.147E-01  1.079E+00
   1   13    7     7     3    1.4663E+02  1.7356E+00   1.4490E+02  0.000E+00  0.000E+00  0.000E+00  1.02969E+03  2.269E+00  5.521E+01  5.584E-01  1.036E+00
   1   13    6     8     1    1.6816E+02  1.1650E+00   1.6699E+02  0.000E+00  0.000E+00  0.000E+00  1.02481E+03  2.936E+00  4.258E+01  4.339E-01  8.950E-01
   1   13    5     8     2    1.6699E+02  3.9828E-01   1.6659E+02  0.000E+00  0.000E+00  0.000E+00  1.01856E+03  2.931E+00  4.250E+01  4.331E-01  3.065E-01
   1   13    4     8     3    1.6659E+02 -1.6928E+00   1.6829E+02  0.000E+00  0.000E+00  0.000E+00  1.01231E+03  2.935E+00  4.256E+01  4.337E+00 -1.301E-01
   1   13    3     8     4    1.6829E+02 -3.2850E+00   1.7157E+02  0.000E+00  0.000E+00  0.000E+00  1.00608E+03  2.952E+00  4.280E+01  4.361E+00 -2.511E-01
   1   13    2     8     5    1.7157E+02 -2.4836E+00   1.7405E+02  0.000E+00  0.000E+00  0.000E+00  9.99845E+02  2.970E+00  4.307E+01  4.389E+00 -1.886E-01
   1   13    1     8     6    1.7405E+02 -1.9571E+00   1.7601E+02  0.000E+00  0.000E+00  0.000E+00  9.94860E+02  2.985E+00  4.328E+01  2.646E+00 -2.465E-01





UNSATURATED ZONE PACKAGE VOLUMETRIC BUDGET FOR  TIME STEP    30 STRESS PERIOD   46
  ------------------------------------------------------------------------------



     CUMULATIVE VOLUMES      L**3       RATES FOR THIS TIME STEP      L**3/T
     ------------------                 ------------------------

           IN:                                      IN:
           ---                                      ---
        INFILTRATION =  2003736385.1816          INFILTRATION =          12.0675

          OUT:                                     OUT:
          ----                                     ----
              UZF ET =  1715590370.0906                UZF ET =          12.0675
        UZF RECHARGE =   254896435.7227          UZF RECHARGE =          30.4949

            IN - OUT =    33249579.3683              IN - OUT =         -30.4949

          STORAGE:                                 STORAGE:
          --------                                 --------
      STORAGE CHANGE =    33249551.1988        STORAGE CHANGE =         -30.4949

 PERCENT DISCREPANCY IS DIFFERENCE BETWEEN IN-OUT MINUS CHANGE IN STORAGE
 DIVIDED BY THE AVERAGE OF IN AND OUT TIMES 100

 PERCENT DISCREPANCY =           0.00     PERCENT DISCREPANCY =           0.00






1
  VOLUMETRIC BUDGET FOR AGRICULTURAL FIELDS AT  END OF TIME STEP   30, STRESS PERIOD  46
  ------------------------------------------------------------------------------

     CUMULATIVE VOLUMES      L**3       RATES FOR THIS TIME STEP      L**3/T
     ------------------                 ------------------------

           IN:                                      IN:
           ---                                      ---
               AG WELLS  =  1903360384.0000                 AG WELLS  =          11.2200
      DIVERSION SEGMENTS =           0.0000        DIVERSION SEGMENTS =           0.0000
           GW IRRIGATION =           0.0000             GW IRRIGATION =           0.0000
           SW IRRIGATION =           0.0000             SW IRRIGATION =           0.0000
        SYSTEM LOSSES GW =           0.0000          SYSTEM LOSSES GW =           0.0000
        SYSTEM LOSSES SW =           0.0000          SYSTEM LOSSES SW =           0.0000

                TOTAL IN =  1903360384.0000                  TOTAL IN =          11.2200

          OUT:                                     OUT:
          ----                                     ----
               AG WELLS  =           0.0000                 AG WELLS  =           0.0000
      DIVERSION SEGMENTS =           0.0000        DIVERSION SEGMENTS =           0.0000
           GW IRRIGATION =  1903360384.0000             GW IRRIGATION =          11.2200
           SW IRRIGATION =           0.0000             SW IRRIGATION =           0.0000
        SYSTEM LOSSES GW =           0.0000          SYSTEM LOSSES GW =           0.0000
        SYSTEM LOSSES SW =           0.0000          SYSTEM LOSSES SW =           0.0000

               TOTAL OUT =  1903360384.0000                 TOTAL OUT =          11.2200

                IN - OUT =           0.0000                  IN - OUT =           0.0000

     PERCENT DISCREPANCY =           0.00         PERCENT DISCREPANCY =           0.00



1
  VOLUMETRIC BUDGET FOR ENTIRE MODEL AT END OF TIME STEP   30, STRESS PERIOD  46
  ------------------------------------------------------------------------------

     CUMULATIVE VOLUMES      L**3       RATES FOR THIS TIME STEP      L**3/T
     ------------------                 ------------------------

           IN:                                      IN:
           ---                                      ---
             STORAGE     =  2365871360.0000               STORAGE     =          17.1831
       CONSTANT HEAD     =           0.0000         CONSTANT HEAD     =           0.0000
     HEAD DEP BOUNDS     =    33908388.0000       HEAD DEP BOUNDS     =           0.2887
      STREAM LEAKAGE     =  1453035776.0000        STREAM LEAKAGE     =          12.4075
        UZF RECHARGE     =   254896448.0000          UZF RECHARGE     =          30.4949
               GW ET     =           0.0000                 GW ET     =           0.0000
     SURFACE LEAKAGE     =           0.0000       SURFACE LEAKAGE     =           0.0000
           AG WELLS      =           0.0000             AG WELLS      =           0.0000

                TOTAL IN =  4107712000.0000                  TOTAL IN =          60.3741

          OUT:                                     OUT:
          ----                                     ----
             STORAGE     =   956906880.0000               STORAGE     =          39.4463
       CONSTANT HEAD     =           0.0000         CONSTANT HEAD     =           0.0000
     HEAD DEP BOUNDS     =    34549960.0000       HEAD DEP BOUNDS     =           0.2888
      STREAM LEAKAGE     =  1195344640.0000        STREAM LEAKAGE     =           9.4186
        UZF RECHARGE     =           0.0000          UZF RECHARGE     =           0.0000
               GW ET     =    17516984.0000                 GW ET     =           0.0000
     SURFACE LEAKAGE     =           0.0000       SURFACE LEAKAGE     =           0.0000
           AG WELLS      =  1903360384.0000             AG WELLS      =          11.2200

               TOTAL OUT =  4107678720.0000                 TOTAL OUT =          60.3736

                IN - OUT =       33280.0000                  IN - OUT =       4.8828E-04

     PERCENT DISCREPANCY =           0.00         PERCENT DISCREPANCY =           0.00






         TIME SUMMARY AT END OF TIME STEP   30 IN STRESS PERIOD   46
                    SECONDS     MINUTES      HOURS       DAYS        YEARS
                    -----------------------------------------------------------
   TIME STEP LENGTH  87667.      1461.1      24.352      1.0147     2.77799E-03
 STRESS PERIOD TIME 2.63000E+06  43833.      730.56      30.440     8.33397E-02
         TOTAL TIME 1.18435E+08 1.97392E+06  32899.      1370.8      3.7530    
1
1
                            STRESS PERIOD NO.   47, LENGTH =   2630000.    
                            -----------------------------------------------

                              NUMBER OF TIME STEPS =    30

                               MULTIPLIER FOR DELT =     1.000

                            INITIAL TIME STEP SIZE =   87666.66    

 REUSING NON-PARAMETER GHB CELLS FROM LAST STRESS PERIOD

      2 GHB CELLS

 REUSING STREAM SEGMENT DATA FROM LAST STRESS PERIOD



            AREAL INFILTRATION RATE
 READING ON UNIT   19 WITH FORMAT: (FREE)              

            1           2           3           4           5           6           7           8           9          10
 ........................................................................................................................
   1   1.0000E-10  2.0000E-10   0.000       0.000       0.000       0.000       0.000       0.000       0.000       0.000    
   2   2.0000E-10  1.0000E-10  2.0000E-10   0.000       0.000      8.0000E-10  8.0000E-10  5.0000E-10   0.000       0.000    
   3    0.000      5.0000E-10  1.0000E-10  1.0000E-10  8.0000E-10  8.0000E-10  5.0000E-10  5.0000E-10   0.000       0.000    
   4   8.0000E-10  5.0000E-10  1.0000E-10  1.0000E-10  1.0000E-10  1.0000E-10  1.0000E-10  1.0000E-10  2.0000E-10   0.000    
   5   8.0000E-10  5.0000E-10  1.0000E-10  1.0000E-10  1.0000E-10  1.0000E-10  1.0000E-10  1.0000E-10  1.0000E-10  1.0000E-10
   6   8.0000E-10  5.0000E-10  5.0000E-10  2.0000E-10  2.0000E-10  1.0000E-10  1.0000E-10  1.0000E-10  1.0000E-10  5.0000E-10
   7   8.0000E-10  5.0000E-10  5.0000E-10  2.0000E-10  2.0000E-10  1.0000E-10  1.0000E-10  2.0000E-10  2.0000E-10   0.000    
   8    0.000      5.0000E-10  5.0000E-10  2.0000E-10  2.0000E-10  1.0000E-10  1.0000E-10  2.0000E-10  5.0000E-10   0.000    
   9    0.000      5.0000E-10  5.0000E-10  2.0000E-10  2.0000E-10  1.0000E-10  1.0000E-10  2.0000E-10  5.0000E-10   0.000    
  10    0.000      5.0000E-10  5.0000E-10  2.0000E-10  2.0000E-10  1.0000E-10  1.0000E-10  2.0000E-10  5.0000E-10  8.0000E-10
  11    0.000      1.0000E-10  1.0000E-10  1.0000E-10  1.0000E-10  1.0000E-10  1.0000E-10  2.0000E-10  5.0000E-10   0.000    
  12   1.0000E-10  1.0000E-10  1.0000E-10  1.0000E-10  1.0000E-10  1.0000E-10  1.0000E-10  1.0000E-10  2.0000E-10   0.000    
  13   1.0000E-10  1.0000E-10  2.0000E-10  2.0000E-10  2.0000E-10  2.0000E-10  2.0000E-10  1.0000E-10  1.0000E-10   0.000    
  14    0.000      2.0000E-10  5.0000E-10  5.0000E-10  5.0000E-10  5.0000E-10  5.0000E-10  2.0000E-10  1.0000E-10   0.000    
  15    0.000       0.000      8.0000E-10  8.0000E-10  8.0000E-10  8.0000E-10   0.000       0.000       0.000       0.000    

                  ET RATE =  5.000000E-09

 USING ET EXTINCTION DEPTH FROM PREVIOUS STRESS PERIOD. CURRENT PERIOD IS:      47

 USING EXTINCTION WATER CONTENT FROM PREVIOUS STRESS PERIOD. CURRENT PERIOD IS:      47

 USING AIR ENTRY PRESSURE FROM PREVIOUS STRESS PERIOD. CURRENT PERIOD IS:      47

 USING ROOT PRESSURE HEAD FROM PREVIOUS STRESS PERIOD. CURRENT PERIOD IS:      47

 USING ROOT ACTIVITY FROM PREVIOUS STRESS PERIOD. CURRENT PERIOD IS:      47

 PROCESSING AG STRESS PERIOD DATA

 READING AG STRESS PERIOD DATA

 READING IRRIGATION WELL

 END PROCESSING AG STRESS PERIOD DATA OPTIONS
 
 SOLVING FOR HEAD 
                                                   Max.-Head-Change                         Max.-Flux-Residual
  Residual-Control   Outer-Iter.   Inner-Iter.     Column Row Layer    Maximum-Head-Change  Column Row Layer    Maximum-Flux-Residual          L2-NORM 
          0                 1           2             4    7     1       0.1718160527E+00       4    7    1         0.9024834727E+01      0.1858600690E+02
          0                 2           2             5    8     1       0.2924014128E-01       5    8    1         0.1603127193E+01      0.2743793493E+01
          0                 3           2             4    8     1       0.7865841193E-02       5    8    1         0.4246739849E+00      0.6075830464E+00
          0                 4           2             4    8     1       0.2155013412E-02       4    8    1         0.1152543802E+00      0.1621445468E+00
          0                 5           2             4    8     1       0.5901496108E-03       4    8    1         0.3156241249E-01      0.4390410772E-01
          0                 6           2             4    8     1       0.1615449704E-03       4    8    1         0.8642290048E-02      0.1189868891E-01
          0                 7           1             4    8     1       0.4420330334E-04       4    8    1         0.2365443129E-02      0.3225455141E-02

    ------------------------------------------------
       NWT REQUIRED            7 OUTER ITERATIONS 
       AND A TOTAL OF         13 INNER ITERATIONS.
    ------------------------------------------------

 NO OUTPUT CONTROL FOR STRESS PERIOD   47   TIME STEP    1
 
 SOLVING FOR HEAD 
                                                   Max.-Head-Change                         Max.-Flux-Residual
  Residual-Control   Outer-Iter.   Inner-Iter.     Column Row Layer    Maximum-Head-Change  Column Row Layer    Maximum-Flux-Residual          L2-NORM 
          0                 1           2             4    7     1       0.1705957723E+00       4    7    1         0.8964127579E+01      0.1825834584E+02
          0                 2           2             4    6     1      -0.1445963899E-01       4    6    1        -0.8095646575E+00      0.1325137048E+01
          0                 3           2             4    8     1      -0.1404232275E-02       4    8    1        -0.7700144581E-01      0.1411750418E+00
          0                 4           2             5    7     1       0.3100260250E-03       5    7    1         0.1715382308E-01      0.2364155406E-01
          0                 5           1             5    7     1       0.8072013218E-04       5    7    1         0.4485490364E-02      0.6055545122E-02

    ------------------------------------------------
       NWT REQUIRED            5 OUTER ITERATIONS 
       AND A TOTAL OF          9 INNER ITERATIONS.
    ------------------------------------------------

 NO OUTPUT CONTROL FOR STRESS PERIOD   47   TIME STEP    2
 
 SOLVING FOR HEAD 
                                                   Max.-Head-Change                         Max.-Flux-Residual
  Residual-Control   Outer-Iter.   Inner-Iter.     Column Row Layer    Maximum-Head-Change  Column Row Layer    Maximum-Flux-Residual          L2-NORM 
          0                 1           2             4    7     1       0.1687025539E+00       4    7    1         0.8868676231E+01      0.1713246337E+02
          0                 2           2             4    7     1       0.4590801534E-01       4    7    1         0.2486207373E+01      0.3802137694E+01
          0                 3           2             5    7     1       0.9885416129E-02       5    7    1         0.5336321945E+00      0.7708838871E+00
          0                 4           2             5    6     1       0.2262565099E-02       5    6    1         0.1256572529E+00      0.1396716207E+00
          0                 5           2             5    6     1       0.5938863712E-03       5    6    1         0.3269383883E-01      0.3297796573E-01
          0                 6           2             5    6     1       0.1558857976E-03       5    6    1         0.8598910295E-02      0.8600522288E-02
          0                 7           1             5    6     1       0.4091754829E-04       5    6    1         0.2256362657E-02      0.2256474677E-02

    ------------------------------------------------
       NWT REQUIRED            7 OUTER ITERATIONS 
       AND A TOTAL OF         13 INNER ITERATIONS.
    ------------------------------------------------

 NO OUTPUT CONTROL FOR STRESS PERIOD   47   TIME STEP    3
 
 SOLVING FOR HEAD 
                                                   Max.-Head-Change                         Max.-Flux-Residual
  Residual-Control   Outer-Iter.   Inner-Iter.     Column Row Layer    Maximum-Head-Change  Column Row Layer    Maximum-Flux-Residual          L2-NORM 
          0                 1           2             4    7     1       0.1644008212E+00       4    7    1         0.8640627322E+01      0.1674889477E+02
          0                 2           2             4    6     1       0.1986907794E-01       4    6    1         0.1097780049E+01      0.1739046029E+01
          0                 3           2             4    6     1       0.5299573028E-02       4    6    1         0.2879039463E+00      0.3030762269E+00
          0                 4           2             4    6     1       0.1413535478E-02       4    6    1         0.7709876912E-01      0.7718783523E-01
          0                 5           2             4    6     1       0.3770268953E-03       4    6    1         0.2055227842E-01      0.2055289573E-01
          0                 6           1             4    6     1       0.1005629576E-03       4    6    1         0.5481869200E-02      0.5482022404E-02
          0                 7           1             4    6     1       0.2682277805E-04       4    6    1         0.1462155727E-02      0.1462197435E-02

    ------------------------------------------------
       NWT REQUIRED            7 OUTER ITERATIONS 
       AND A TOTAL OF         12 INNER ITERATIONS.
    ------------------------------------------------

 NO OUTPUT CONTROL FOR STRESS PERIOD   47   TIME STEP    4
 
 SOLVING FOR HEAD 
                                                   Max.-Head-Change                         Max.-Flux-Residual
  Residual-Control   Outer-Iter.   Inner-Iter.     Column Row Layer    Maximum-Head-Change  Column Row Layer    Maximum-Flux-Residual          L2-NORM 
          0                 1           2             4    7     1       0.1630413813E+00       4    7    1         0.8574351338E+01      0.1643695523E+02
          0                 2           2             4    6     1       0.2471324660E-01       4    6    1         0.1369862297E+01      0.1997889310E+01
          0                 3           2             4    6     1      -0.2402707282E-02       4    6    1        -0.1362706874E+00      0.1704269467E+00
          0                 4           2             4    6     1       0.1634976354E-03       4    6    1         0.9488222531E-02      0.1039346661E-01
          0                 5           1             4    6     1      -0.6497903077E-05       4    6    1        -0.3858644218E-03      0.3902017024E-03

    ------------------------------------------------
       NWT REQUIRED            5 OUTER ITERATIONS 
       AND A TOTAL OF          9 INNER ITERATIONS.
    ------------------------------------------------

 NO OUTPUT CONTROL FOR STRESS PERIOD   47   TIME STEP    5
 
 SOLVING FOR HEAD 
                                                   Max.-Head-Change                         Max.-Flux-Residual
  Residual-Control   Outer-Iter.   Inner-Iter.     Column Row Layer    Maximum-Head-Change  Column Row Layer    Maximum-Flux-Residual          L2-NORM 
          0                 1           2             4    7     1       0.1615323430E+00       4    7    1         0.8499561483E+01      0.1614608583E+02
          0                 2           2             4    7     1      -0.1547105803E-01       4    7    1        -0.8495273459E+00      0.1527996157E+01
          0                 3           2             4    8     1       0.1939102505E-02       4    8    1         0.1042265796E+00      0.1466444300E+00
          0                 4           2             4    8     1       0.5207307192E-03       4    8    1         0.2828749364E-01      0.2859157451E-01
          0                 5           2             4    8     1       0.1398378811E-03       4    8    1         0.7584870556E-02      0.7585392924E-02
          0                 6           1             4    8     1       0.3755230508E-04       4    8    1         0.2037028203E-02      0.2037073628E-02

    ------------------------------------------------
       NWT REQUIRED            6 OUTER ITERATIONS 
       AND A TOTAL OF         11 INNER ITERATIONS.
    ------------------------------------------------

 NO OUTPUT CONTROL FOR STRESS PERIOD   47   TIME STEP    6
 
 SOLVING FOR HEAD 
                                                   Max.-Head-Change                         Max.-Flux-Residual
  Residual-Control   Outer-Iter.   Inner-Iter.     Column Row Layer    Maximum-Head-Change  Column Row Layer    Maximum-Flux-Residual          L2-NORM 
          0                 1           2             4    7     1       0.1597259054E+00       4    7    1         0.8407490201E+01      0.1587459965E+02
          0                 2           2             4    8     1       0.3290963917E-01       4    8    1         0.1767814503E+01      0.2754467304E+01
          0                 3           2             4    8     1       0.8982452453E-02       4    8    1         0.4813104360E+00      0.6769751848E+00
          0                 4           2             4    8     1       0.2451564720E-02       4    8    1         0.1314407079E+00      0.1834364587E+00
          0                 5           2             4    8     1       0.6690664539E-03       4    8    1         0.3587043005E-01      0.4996616557E-01
          0                 6           1             4    7     1       0.1752185686E-03       4    7    1         0.9463928820E-02      0.1107663879E-01
          0                 7           1             4    7     1       0.4685556975E-04       4    7    1         0.2556709720E-02      0.2620684427E-02

    ------------------------------------------------
       NWT REQUIRED            7 OUTER ITERATIONS 
       AND A TOTAL OF         12 INNER ITERATIONS.
    ------------------------------------------------

 NO OUTPUT CONTROL FOR STRESS PERIOD   47   TIME STEP    7
 
 SOLVING FOR HEAD 
                                                   Max.-Head-Change                         Max.-Flux-Residual
  Residual-Control   Outer-Iter.   Inner-Iter.     Column Row Layer    Maximum-Head-Change  Column Row Layer    Maximum-Flux-Residual          L2-NORM 
          0                 1           2             4    7     1       0.1554627850E+00       4    7    1         0.8180505100E+01      0.1557429180E+02
          0                 2           2             5    7     1       0.2253260949E-01       5    7    1         0.1253824875E+01      0.1727940244E+01
          0                 3           2             5    7     1       0.5903062020E-02       5    7    1         0.3255138444E+00      0.3366312699E+00
          0                 4           2             5    7     1       0.1546479269E-02       5    7    1         0.8541729970E-01      0.8549880328E-01
          0                 5           2             5    7     1       0.4051455967E-03       5    7    1         0.2237435844E-01      0.2237506638E-01
          0                 6           1             5    7     1       0.1061397919E-03       5    7    1         0.5861334216E-02      0.5861561249E-02
          0                 7           1             5    7     1       0.2780643827E-04       5    7    1         0.1535554681E-02      0.1535613335E-02

    ------------------------------------------------
       NWT REQUIRED            7 OUTER ITERATIONS 
       AND A TOTAL OF         12 INNER ITERATIONS.
    ------------------------------------------------

 NO OUTPUT CONTROL FOR STRESS PERIOD   47   TIME STEP    8
 
 SOLVING FOR HEAD 
                                                   Max.-Head-Change                         Max.-Flux-Residual
  Residual-Control   Outer-Iter.   Inner-Iter.     Column Row Layer    Maximum-Head-Change  Column Row Layer    Maximum-Flux-Residual          L2-NORM 
          0                 1           2             4    7     1       0.1532136289E+00       4    7    1         0.8064870872E+01      0.1530787869E+02
          0                 2           2             5    7     1       0.2604834083E-01       5    7    1         0.1435972790E+01      0.2310679881E+01
          0                 3           2             5    6     1       0.6319172108E-02       5    6    1         0.3476278681E+00      0.4275022961E+00
          0                 4           2             5    6     1       0.1678866707E-02       5    6    1         0.9163027194E-01      0.1061859963E+00
          0                 5           2             5    6     1       0.4462637996E-03       5    6    1         0.2439218736E-01      0.2840034999E-01
          0                 6           2             5    6     1       0.1186815593E-03       5    6    1         0.6482814830E-02      0.7626688706E-02
          0                 7           1             5    6     1       0.3157830364E-04       5    6    1         0.1724379832E-02      0.2049818585E-02

    ------------------------------------------------
       NWT REQUIRED            7 OUTER ITERATIONS 
       AND A TOTAL OF         13 INNER ITERATIONS.
    ------------------------------------------------

 NO OUTPUT CONTROL FOR STRESS PERIOD   47   TIME STEP    9
 
 SOLVING FOR HEAD 
                                                   Max.-Head-Change                         Max.-Flux-Residual
  Residual-Control   Outer-Iter.   Inner-Iter.     Column Row Layer    Maximum-Head-Change  Column Row Layer    Maximum-Flux-Residual          L2-NORM 
          0                 1           2             4    7     1       0.1521795166E+00       4    7    1         0.8015347600E+01      0.1503414374E+02
          0                 2           2             4    6     1       0.3536611384E-01       4    6    1         0.1918236839E+01      0.2722774286E+01
          0                 3           2             5    6     1      -0.1894000471E-02       5    6    1        -0.1083663823E+00      0.1387722200E+00
          0                 4           2             5    6     1       0.1288821446E-03       5    6    1         0.7559348480E-02      0.8374919617E-02
          0                 5           1             5    6     1      -0.5122236473E-05       5    6    1        -0.3081088294E-03      0.3139244278E-03

    ------------------------------------------------
       NWT REQUIRED            5 OUTER ITERATIONS 
       AND A TOTAL OF          9 INNER ITERATIONS.
    ------------------------------------------------

 NO OUTPUT CONTROL FOR STRESS PERIOD   47   TIME STEP   10
 
 SOLVING FOR HEAD 
                                                   Max.-Head-Change                         Max.-Flux-Residual
  Residual-Control   Outer-Iter.   Inner-Iter.     Column Row Layer    Maximum-Head-Change  Column Row Layer    Maximum-Flux-Residual          L2-NORM 
          0                 1           2             4    7     1       0.1497588099E+00       4    7    1         0.7945142883E+01      0.1365043168E+02
          0                 2           2             4    6     1      -0.1210863235E-01       4    6    1        -0.6672147142E+00      0.1114132110E+01
          0                 3           2             4    6     1       0.8133390728E-03       4    6    1         0.4667014667E-01      0.8581340042E-01
          0                 4           1             4    7     1      -0.1807127348E-03       4    7    1        -0.1005115432E-01      0.1054501805E-01
          0                 5           1             4    7     1      -0.5193031355E-04       4    7    1        -0.2905706456E-02      0.2905874270E-02

    ------------------------------------------------
       NWT REQUIRED            5 OUTER ITERATIONS 
       AND A TOTAL OF          8 INNER ITERATIONS.
    ------------------------------------------------

 NO OUTPUT CONTROL FOR STRESS PERIOD   47   TIME STEP   11
 
 SOLVING FOR HEAD 
                                                   Max.-Head-Change                         Max.-Flux-Residual
  Residual-Control   Outer-Iter.   Inner-Iter.     Column Row Layer    Maximum-Head-Change  Column Row Layer    Maximum-Flux-Residual          L2-NORM 
          0                 1           2             4    7     1       0.1448927322E+00       4    7    1         0.7752382583E+01      0.1216503144E+02
          0                 2           2             4    7     1       0.3874286612E-01       4    7    1         0.2121780566E+01      0.2319489119E+01
          0                 3           2             4    7     1       0.1035952231E-01       4    7    1         0.5628228962E+00      0.5667297660E+00
          0                 4           1             4    7     1       0.2770049039E-02       4    7    1         0.1507721229E+00      0.1507903303E+00
          0                 5           1             4    7     1       0.7226299477E-03       4    7    1         0.3932108790E-01      0.3932192776E-01
          0                 6           1             4    7     1      -0.7025533820E-04       4    7    1        -0.3931864721E-02      0.3932145649E-02

    ------------------------------------------------
       NWT REQUIRED            6 OUTER ITERATIONS 
       AND A TOTAL OF          9 INNER ITERATIONS.
    ------------------------------------------------

 NO OUTPUT CONTROL FOR STRESS PERIOD   47   TIME STEP   12
 
 SOLVING FOR HEAD 
                                                   Max.-Head-Change                         Max.-Flux-Residual
  Residual-Control   Outer-Iter.   Inner-Iter.     Column Row Layer    Maximum-Head-Change  Column Row Layer    Maximum-Flux-Residual          L2-NORM 
          0                 1           2             4    7     1       0.1375797547E+00       4    7    1         0.7350056333E+01      0.1184305145E+02
          0                 2           2             4    7     1      -0.1354771551E-01       4    7    1        -0.7453857507E+00      0.1189172914E+01
          0                 3           2             4    7     1       0.9218591072E-03       4    7    1         0.5213794011E-01      0.8318451509E-01
          0                 4           1             4    7     1      -0.3663643342E-04       4    7    1        -0.2129818326E-02      0.3398355479E-02

    ------------------------------------------------
       NWT REQUIRED            4 OUTER ITERATIONS 
       AND A TOTAL OF          7 INNER ITERATIONS.
    ------------------------------------------------

 NO OUTPUT CONTROL FOR STRESS PERIOD   47   TIME STEP   13
 
 SOLVING FOR HEAD 
                                                   Max.-Head-Change                         Max.-Flux-Residual
  Residual-Control   Outer-Iter.   Inner-Iter.     Column Row Layer    Maximum-Head-Change  Column Row Layer    Maximum-Flux-Residual          L2-NORM 
          0                 1           2             4    7     1       0.1335239391E+00       4    7    1         0.7139062655E+01      0.1055661893E+02
          0                 2           2             4    7     1      -0.1298193680E-01       4    7    1        -0.7135687649E+00      0.1055180221E+01
          0                 3           2             4    7     1       0.8833604935E-03       4    7    1         0.4991241069E-01      0.7381279670E-01
          0                 4           1             4    7     1      -0.3510639717E-04       4    7    1        -0.2038903575E-02      0.3015580601E-02

    ------------------------------------------------
       NWT REQUIRED            4 OUTER ITERATIONS 
       AND A TOTAL OF          7 INNER ITERATIONS.
    ------------------------------------------------

 NO OUTPUT CONTROL FOR STRESS PERIOD   47   TIME STEP   14
 
 SOLVING FOR HEAD 
                                                   Max.-Head-Change                         Max.-Flux-Residual
  Residual-Control   Outer-Iter.   Inner-Iter.     Column Row Layer    Maximum-Head-Change  Column Row Layer    Maximum-Flux-Residual          L2-NORM 
          0                 1           2             4    7     1       0.1298177824E+00       4    7    1         0.6937502510E+01      0.1031255583E+02
          0                 2           2             4    6     1       0.2187778283E-01       4    6    1         0.1205359811E+01      0.1459398970E+01
          0                 3           2             4    6     1       0.5834655819E-02       4    6    1         0.3172453047E+00      0.3225210712E+00
          0                 4           2             4    6     1       0.1556070342E-02       4    6    1         0.8487033064E-01      0.8489691673E-01
          0                 5           2             4    6     1       0.4149952542E-03       4    6    1         0.2262393319E-01      0.2262453943E-01
          0                 6           2             4    6     1       0.1106769323E-03       4    6    1         0.6033704432E-02      0.6033874263E-02
          0                 7           1             4    6     1       0.2951692468E-04       4    6    1         0.1609150917E-02      0.1609197323E-02

    ------------------------------------------------
       NWT REQUIRED            7 OUTER ITERATIONS 
       AND A TOTAL OF         13 INNER ITERATIONS.
    ------------------------------------------------

 NO OUTPUT CONTROL FOR STRESS PERIOD   47   TIME STEP   15
 
 SOLVING FOR HEAD 
                                                   Max.-Head-Change                         Max.-Flux-Residual
  Residual-Control   Outer-Iter.   Inner-Iter.     Column Row Layer    Maximum-Head-Change  Column Row Layer    Maximum-Flux-Residual          L2-NORM 
          0                 1           2             4    6     1       0.1097996483E+00       4    6    1         0.5924631634E+01      0.7736832190E+01
          0                 2           2             4    6     1       0.2829718941E-01       4    6    1         0.1549174143E+01      0.1627067596E+01
          0                 3           2             4    6     1      -0.2751135611E-02       4    6    1        -0.1546827845E+00      0.1586764822E+00
          0                 4           2             4    6     1       0.1872059533E-03       4    6    1         0.1080936125E-01      0.1091378033E-01
          0                 5           1             4    6     1      -0.7440096997E-05       4    6    1        -0.4411503796E-03      0.4418329000E-03

    ------------------------------------------------
       NWT REQUIRED            5 OUTER ITERATIONS 
       AND A TOTAL OF          9 INNER ITERATIONS.
    ------------------------------------------------

 NO OUTPUT CONTROL FOR STRESS PERIOD   47   TIME STEP   16
 
 SOLVING FOR HEAD 
                                                   Max.-Head-Change                         Max.-Flux-Residual
  Residual-Control   Outer-Iter.   Inner-Iter.     Column Row Layer    Maximum-Head-Change  Column Row Layer    Maximum-Flux-Residual          L2-NORM 
          0                 1           2             4    6     1       0.1039901414E+00       4    6    1         0.5604037636E+01      0.7497783594E+01
          0                 2           2             4    6     1      -0.1011040459E-01       4    6    1        -0.5601303608E+00      0.7494631319E+00
          0                 3           2             4    6     1       0.6879733286E-03       4    6    1         0.3918009560E-01      0.5243041751E-01
          0                 4           1             4    6     1      -0.2734173947E-04       4    6    1        -0.1600507500E-02      0.2142238009E-02

    ------------------------------------------------
       NWT REQUIRED            4 OUTER ITERATIONS 
       AND A TOTAL OF          7 INNER ITERATIONS.
    ------------------------------------------------

 NO OUTPUT CONTROL FOR STRESS PERIOD   47   TIME STEP   17
 
 SOLVING FOR HEAD 
                                                   Max.-Head-Change                         Max.-Flux-Residual
  Residual-Control   Outer-Iter.   Inner-Iter.     Column Row Layer    Maximum-Head-Change  Column Row Layer    Maximum-Flux-Residual          L2-NORM 
          0                 1           2             4    6     1       0.1003423066E+00       4    6    1         0.5403073138E+01      0.7335334858E+01
          0                 2           2             4    6     1      -0.9755732210E-02       4    6    1        -0.5400428080E+00      0.7332253958E+00
          0                 3           2             4    6     1       0.6638390784E-03       4    6    1         0.3777499180E-01      0.5129458790E-01
          0                 4           1             4    6     1      -0.2638256756E-04       4    6    1        -0.1543107432E-02      0.2095835433E-02

    ------------------------------------------------
       NWT REQUIRED            4 OUTER ITERATIONS 
       AND A TOTAL OF          7 INNER ITERATIONS.
    ------------------------------------------------

 NO OUTPUT CONTROL FOR STRESS PERIOD   47   TIME STEP   18
 
 SOLVING FOR HEAD 
                                                   Max.-Head-Change                         Max.-Flux-Residual
  Residual-Control   Outer-Iter.   Inner-Iter.     Column Row Layer    Maximum-Head-Change  Column Row Layer    Maximum-Flux-Residual          L2-NORM 
          0                 1           2             4    6     1       0.9689958049E-01       4    6    1         0.5213538781E+01      0.7184051384E+01
          0                 2           2             4    6     1      -0.9421002533E-02       4    6    1        -0.5210977879E+00      0.7181037349E+00
          0                 3           2             4    6     1       0.6410618673E-03       4    6    1         0.3644980750E-01      0.5023682542E-01
          0                 4           1             4    6     1      -0.2547732937E-04       4    6    1        -0.1488972216E-02      0.2052623526E-02

    ------------------------------------------------
       NWT REQUIRED            4 OUTER ITERATIONS 
       AND A TOTAL OF          7 INNER ITERATIONS.
    ------------------------------------------------

 NO OUTPUT CONTROL FOR STRESS PERIOD   47   TIME STEP   19
 
 SOLVING FOR HEAD 
                                                   Max.-Head-Change                         Max.-Flux-Residual
  Residual-Control   Outer-Iter.   Inner-Iter.     Column Row Layer    Maximum-Head-Change  Column Row Layer    Maximum-Flux-Residual          L2-NORM 
          0                 1           2             4    7     1       0.4361912023E-01       4    7    1         0.2317795601E+01      0.4947166756E+01
          0                 2           2             4    7     1      -0.4240722936E-02       4    7    1        -0.2316584402E+00      0.4945550426E+00
          0                 3           2             4    7     1       0.2885618722E-03       4    7    1         0.1620397535E-01      0.3460301629E-01
          0                 4           1             4    7     1      -0.1146790414E-04       4    7    1        -0.6619208739E-03      0.1414186780E-02

    ------------------------------------------------
       NWT REQUIRED            4 OUTER ITERATIONS 
       AND A TOTAL OF          7 INNER ITERATIONS.
    ------------------------------------------------

 NO OUTPUT CONTROL FOR STRESS PERIOD   47   TIME STEP   20
 
 SOLVING FOR HEAD 
                                                   Max.-Head-Change                         Max.-Flux-Residual
  Residual-Control   Outer-Iter.   Inner-Iter.     Column Row Layer    Maximum-Head-Change  Column Row Layer    Maximum-Flux-Residual          L2-NORM 
          0                 1           2             4    7     1       0.4268225201E-01       4    7    1         0.2266332732E+01      0.4871704533E+01
          0                 2           2             4    7     1      -0.4149636418E-02       4    7    1        -0.2265146718E+00      0.4870100910E+00
          0                 3           2             4    7     1       0.2823637199E-03       4    7    1         0.1584417259E-01      0.3407500010E-01
          0                 4           1             4    7     1      -0.1122157056E-04       4    7    1        -0.6472225787E-03      0.1392603806E-02

    ------------------------------------------------
       NWT REQUIRED            4 OUTER ITERATIONS 
       AND A TOTAL OF          7 INNER ITERATIONS.
    ------------------------------------------------

 NO OUTPUT CONTROL FOR STRESS PERIOD   47   TIME STEP   21
 
 SOLVING FOR HEAD 
                                                   Max.-Head-Change                         Max.-Flux-Residual
  Residual-Control   Outer-Iter.   Inner-Iter.     Column Row Layer    Maximum-Head-Change  Column Row Layer    Maximum-Flux-Residual          L2-NORM 
          0                 1           2             4    7     1       0.4179506939E-01       4    7    1         0.2217655840E+01      0.4799950572E+01
          0                 2           2             4    7     1      -0.4063380615E-02       4    7    1        -0.2216493683E+00      0.4798359292E+00
          0                 3           2             4    7     1       0.2764942875E-03       4    7    1         0.1550384848E-01      0.3357293407E-01
          0                 4           1             4    7     1      -0.1098830132E-04       4    7    1        -0.6333200395E-03      0.1372075373E-02

    ------------------------------------------------
       NWT REQUIRED            4 OUTER ITERATIONS 
       AND A TOTAL OF          7 INNER ITERATIONS.
    ------------------------------------------------

 NO OUTPUT CONTROL FOR STRESS PERIOD   47   TIME STEP   22
 
 SOLVING FOR HEAD 
                                                   Max.-Head-Change                         Max.-Flux-Residual
  Residual-Control   Outer-Iter.   Inner-Iter.     Column Row Layer    Maximum-Head-Change  Column Row Layer    Maximum-Flux-Residual          L2-NORM 
          0                 1           2             4    7     1       0.4095385199E-01       4    7    1         0.2171555071E+01      0.4731587216E+01
          0                 2           2             4    7     1      -0.3981593812E-02       4    7    1        -0.2170415542E+00      0.4730007998E+00
          0                 3           2             4    7     1       0.2709289611E-03       4    7    1         0.1518153584E-01      0.3309459693E-01
          0                 4           1             4    7     1      -0.1076711886E-04       4    7    1        -0.6201532960E-03      0.1352521059E-02

    ------------------------------------------------
       NWT REQUIRED            4 OUTER ITERATIONS 
       AND A TOTAL OF          7 INNER ITERATIONS.
    ------------------------------------------------

 NO OUTPUT CONTROL FOR STRESS PERIOD   47   TIME STEP   23
 
 SOLVING FOR HEAD 
                                                   Max.-Head-Change                         Max.-Flux-Residual
  Residual-Control   Outer-Iter.   Inner-Iter.     Column Row Layer    Maximum-Head-Change  Column Row Layer    Maximum-Flux-Residual          L2-NORM 
          0                 1           2             4    7     1       0.4015544003E-01       4    7    1         0.2127852042E+01      0.4666299914E+01
          0                 2           2             4    7     1      -0.3903968799E-02       4    7    1        -0.2126734000E+00      0.4664732587E+00
          0                 3           2             4    7     1       0.2656468352E-03       4    7    1         0.1487598747E-01      0.3263779019E-01
          0                 4           1             4    7     1      -0.1055719163E-04       4    7    1        -0.6076713930E-03      0.1333843332E-02

    ------------------------------------------------
       NWT REQUIRED            4 OUTER ITERATIONS 
       AND A TOTAL OF          7 INNER ITERATIONS.
    ------------------------------------------------

 NO OUTPUT CONTROL FOR STRESS PERIOD   47   TIME STEP   24
 
 SOLVING FOR HEAD 
                                                   Max.-Head-Change                         Max.-Flux-Residual
  Residual-Control   Outer-Iter.   Inner-Iter.     Column Row Layer    Maximum-Head-Change  Column Row Layer    Maximum-Flux-Residual          L2-NORM 
          0                 1           2             4    7     1       0.3939666732E-01       4    7    1         0.2086368409E+01      0.4603830868E+01
          0                 2           2             4    7     1      -0.3830197745E-02       4    7    1        -0.2085270800E+00      0.4602275199E+00
          0                 3           2             4    7     1       0.2606269634E-03       4    7    1         0.1458595644E-01      0.3220070130E-01
          0                 4           1             4    7     1      -0.1035768770E-04       4    7    1        -0.5958234406E-03      0.1315978998E-02

    ------------------------------------------------
       NWT REQUIRED            4 OUTER ITERATIONS 
       AND A TOTAL OF          7 INNER ITERATIONS.
    ------------------------------------------------

 NO OUTPUT CONTROL FOR STRESS PERIOD   47   TIME STEP   25
 
 SOLVING FOR HEAD 
                                                   Max.-Head-Change                         Max.-Flux-Residual
  Residual-Control   Outer-Iter.   Inner-Iter.     Column Row Layer    Maximum-Head-Change  Column Row Layer    Maximum-Flux-Residual          L2-NORM 
          0                 1           2             4    7     1       0.3867475104E-01       4    7    1         0.2046947269E+01      0.4543930785E+01
          0                 2           2             4    7     1      -0.3760010087E-02       4    7    1        -0.2045869113E+00      0.4542386683E+00
          0                 3           2             4    7     1       0.2558509326E-03       4    7    1         0.1431034569E-01      0.3178159969E-01
          0                 4           1             4    7     1      -0.1016787487E-04       4    7    1        -0.5845645537E-03      0.1298845596E-02

    ------------------------------------------------
       NWT REQUIRED            4 OUTER ITERATIONS 
       AND A TOTAL OF          7 INNER ITERATIONS.
    ------------------------------------------------

 NO OUTPUT CONTROL FOR STRESS PERIOD   47   TIME STEP   26
 
 SOLVING FOR HEAD 
                                                   Max.-Head-Change                         Max.-Flux-Residual
  Residual-Control   Outer-Iter.   Inner-Iter.     Column Row Layer    Maximum-Head-Change  Column Row Layer    Maximum-Flux-Residual          L2-NORM 
          0                 1           2             4    7     1       0.3798700364E-01       4    7    1         0.2009437076E+01      0.4486392219E+01
          0                 2           2             4    7     1      -0.3693144525E-02       4    7    1        -0.2008377467E+00      0.4484859597E+00
          0                 3           2             4    7     1       0.2513009629E-03       4    7    1         0.1404809570E-01      0.3137901942E-01
          0                 4           1             4    7     1      -0.9987046364E-05       4    7    1        -0.5738514774E-03      0.1282378362E-02

    ------------------------------------------------
       NWT REQUIRED            4 OUTER ITERATIONS 
       AND A TOTAL OF          7 INNER ITERATIONS.
    ------------------------------------------------

 NO OUTPUT CONTROL FOR STRESS PERIOD   47   TIME STEP   27
 
 SOLVING FOR HEAD 
                                                   Max.-Head-Change                         Max.-Flux-Residual
  Residual-Control   Outer-Iter.   Inner-Iter.     Column Row Layer    Maximum-Head-Change  Column Row Layer    Maximum-Flux-Residual          L2-NORM 
          0                 1           2             4    7     1       0.3733107664E-01       4    7    1         0.1973705748E+01      0.4431015424E+01
          0                 2           2             4    7     1      -0.3629372730E-02       4    7    1        -0.1972663841E+00      0.4429494184E+00
          0                 3           2             4    7     1       0.2469615175E-03       4    7    1         0.1379828299E-01      0.3099157970E-01
          0                 4           1             4    7     1      -0.9814585334E-05       4    7    1        -0.5636464966E-03      0.1266553459E-02

    ------------------------------------------------
       NWT REQUIRED            4 OUTER ITERATIONS 
       AND A TOTAL OF          7 INNER ITERATIONS.
    ------------------------------------------------

 NO OUTPUT CONTROL FOR STRESS PERIOD   47   TIME STEP   28
 
 SOLVING FOR HEAD 
                                                   Max.-Head-Change                         Max.-Flux-Residual
  Residual-Control   Outer-Iter.   Inner-Iter.     Column Row Layer    Maximum-Head-Change  Column Row Layer    Maximum-Flux-Residual          L2-NORM 
          0                 1           2             4    7     1       0.3670468661E-01       4    7    1         0.1939624256E+01      0.4377634497E+01
          0                 2           2             4    7     1      -0.3568472692E-02       4    7    1        -0.1938599269E+00      0.4376124601E+00
          0                 3           2             4    7     1       0.2428174882E-03       4    7    1         0.1356000544E-01      0.3061810531E-01
          0                 4           1             4    7     1      -0.9649890351E-05       4    7    1        -0.5539127324E-03      0.1251275871E-02

    ------------------------------------------------
       NWT REQUIRED            4 OUTER ITERATIONS 
       AND A TOTAL OF          7 INNER ITERATIONS.
    ------------------------------------------------

 NO OUTPUT CONTROL FOR STRESS PERIOD   47   TIME STEP   29
 
 SOLVING FOR HEAD 
                                                   Max.-Head-Change                         Max.-Flux-Residual
  Residual-Control   Outer-Iter.   Inner-Iter.     Column Row Layer    Maximum-Head-Change  Column Row Layer    Maximum-Flux-Residual          L2-NORM 
          0                 1           2             4    7     1       0.3610585522E-01       4    7    1         0.1907081472E+01      0.4326089578E+01
          0                 2           2             4    7     1      -0.3510252066E-02       4    7    1        -0.1906072674E+00      0.4324591021E+00
          0                 3           2             4    7     1       0.2388557864E-03       4    7    1         0.1333248601E-01      0.3025749860E-01
          0                 4           1             4    7     1      -0.9492442305E-05       4    7    1        -0.5446184755E-03      0.1236546615E-02

    ------------------------------------------------
       NWT REQUIRED            4 OUTER ITERATIONS 
       AND A TOTAL OF          7 INNER ITERATIONS.
    ------------------------------------------------

 NO OUTPUT CONTROL FOR STRESS PERIOD   47   TIME STEP   30



 STREAM LISTING     PERIOD     47   STEP       30

 LAYER ROW COL. STREAM  RCH.  FLOW INTO     FLOW TO   FLOW OUT OF   OVRLND.     DIRECT     STREAM       STREAM     STREAM     STREAM   STREAMBED  STREAMBED
                SEG.NO.  NO.  STRM. RCH.    AQUIFER    STRM. RCH.    RUNOFF     PRECIP       ET          HEAD       DEPTH      WIDTH   CONDCTNC.   GRADIENT

   1    1    1     1     1    1.9000E+01  2.1427E-01   1.8786E+01  0.000E+00  0.000E+00  0.000E+00  1.09413E+03  1.082E+00  1.166E+01  5.249E-02  1.361E+00
   1    2    2     1     2    1.8786E+01  3.3054E-01   1.8455E+01  0.000E+00  0.000E+00  0.000E+00  1.08914E+03  1.077E+00  1.158E+01  8.107E-02  1.359E+00
   1    3    3     1     3    1.8455E+01  2.8064E-01   1.8175E+01  0.000E+00  0.000E+00  0.000E+00  1.08349E+03  1.072E+00  1.149E+01  6.892E-02  1.357E+00
   1    3    4     1     4    1.8175E+01  2.5740E-01   1.7917E+01  0.000E+00  0.000E+00  0.000E+00  1.07848E+03  1.068E+00  1.140E+01  6.328E-02  1.356E+00
   1    4    5     2     1    1.5917E+01  3.0542E-01   1.5612E+01  0.000E+00  0.000E+00  0.000E+00  1.07285E+03  9.157E-01  1.200E+01  7.800E-02  1.305E+00
   1    5    6     2     2    1.5612E+01  2.3438E-01   1.5377E+01  0.000E+00  0.000E+00  0.000E+00  1.06742E+03  9.063E-01  1.200E+01  6.000E-02  1.302E+00
   1    6    6     2     3    1.5377E+01  2.3388E-01   1.5143E+01  0.000E+00  0.000E+00  0.000E+00  1.06269E+03  8.980E-01  1.200E+01  6.000E-02  1.299E+00
   1    7    6     2     4    1.5143E+01  2.3338E-01   1.4910E+01  0.000E+00  0.000E+00  0.000E+00  1.05797E+03  8.897E-01  1.200E+01  6.000E-02  1.297E+00
   1    8    6     2     5    1.4910E+01  2.3289E-01   1.4677E+01  0.000E+00  0.000E+00  0.000E+00  1.05324E+03  8.814E-01  1.200E+01  6.000E-02  1.294E+00
   1    3    5     3     1    2.0000E+00  2.8252E-01   1.7175E+00  0.000E+00  0.000E+00  0.000E+00  1.07555E+03  1.909E+00  9.636E+00  7.227E-02  1.955E+00
   1    3    6     3     2    1.7175E+00  2.4905E-01   1.4684E+00  0.000E+00  0.000E+00  0.000E+00  1.07264E+03  1.727E+00  8.909E+00  6.682E-02  1.864E+00
   1    3    7     3     3    1.4684E+00  1.9718E-01   1.2712E+00  0.000E+00  0.000E+00  0.000E+00  1.06987E+03  1.555E+00  8.218E+00  5.547E-02  1.777E+00
   1    4    8     3     4    1.2712E+00  2.2567E-01   1.0456E+00  0.000E+00  0.000E+00  0.000E+00  1.06682E+03  1.364E+00  7.455E+00  6.709E-02  1.682E+00
   1    5    8     3     5    1.0456E+00  1.5790E-01   8.8768E-01  0.000E+00  0.000E+00  0.000E+00  1.06362E+03  1.164E+00  6.655E+00  4.991E-02  1.582E+00
   1    6    8     3     6    8.8768E-01  5.5980E-02   8.3170E-01  0.000E+00  0.000E+00  0.000E+00  1.06158E+03  1.036E+00  6.145E+00  1.844E-02  1.518E+00
   1    5   10     4     1    1.0000E+01  9.0919E-02   9.9091E+00  0.000E+00  0.000E+00  0.000E+00  1.07836E+03  6.368E-01  1.000E+01  2.500E-02  1.212E+00
   1    5    9     4     2    9.9091E+00  1.8158E-01   9.7275E+00  0.000E+00  0.000E+00  0.000E+00  1.07154E+03  6.315E-01  1.000E+01  5.000E-02  1.211E+00
   1    6    8     4     3    9.7275E+00  1.2689E-01   9.6006E+00  0.000E+00  0.000E+00  0.000E+00  1.06381E+03  6.256E-01  1.000E+01  3.500E-02  1.209E+00
   1    6    8     5     1    1.0432E+01  2.2686E-01   1.0205E+01  0.000E+00  0.000E+00  0.000E+00  1.05868E+03  6.790E-01  1.542E+01  6.166E-02  1.226E+00
   1    7    7     5     2    1.0205E+01  2.7894E-01   9.9265E+00  0.000E+00  0.000E+00  0.000E+00  1.05417E+03  6.732E-01  1.519E+01  7.594E-02  1.224E+00
   1    8    7     5     3    9.9265E+00  1.9221E-01   9.7343E+00  0.000E+00  0.000E+00  0.000E+00  1.04992E+03  6.676E-01  1.497E+01  5.241E-02  1.223E+00
   1    8    6     5     4    9.7343E+00  1.3577E-01   9.5985E+00  0.000E+00  0.000E+00  0.000E+00  1.04691E+03  6.637E-01  1.482E+01  3.706E-02  1.221E+00
   1    9    6     6     1    2.4276E+01  2.5176E-01   2.4024E+01  0.000E+00  0.000E+00  0.000E+00  1.04392E+03  1.196E+00  1.200E+01  6.000E-02  1.399E+00
   1   10    7     6     2    2.4024E+01  2.5131E-01   2.3773E+01  0.000E+00  0.000E+00  0.000E+00  1.03937E+03  1.188E+00  1.200E+01  6.000E-02  1.396E+00
   1   11    7     6     3    2.3773E+01  2.5086E-01   2.3522E+01  0.000E+00  0.000E+00  0.000E+00  1.03482E+03  1.181E+00  1.200E+01  6.000E-02  1.394E+00
   1   12    7     6     4    2.3522E+01  2.5041E-01   2.3271E+01  0.000E+00  0.000E+00  0.000E+00  1.03026E+03  1.173E+00  1.200E+01  6.000E-02  1.391E+00
   1   13    7     6     5    2.3271E+01  1.2247E-02   2.3259E+01  0.000E+00  0.000E+00  0.000E+00  1.02708E+03  1.169E+00  1.200E+01  2.400E-02  1.701E-01
   1   14    9     7     1    1.5000E+02  1.3805E+00   1.4862E+02  0.000E+00  0.000E+00  0.000E+00  1.03987E+03  2.288E+00  5.529E+01  5.593E-01  8.228E-01
   1   13    8     7     2    1.4862E+02  1.9934E+00   1.4663E+02  0.000E+00  0.000E+00  0.000E+00  1.03478E+03  2.279E+00  5.525E+01  6.147E-01  1.081E+00
   1   13    7     7     3    1.4663E+02  1.7419E+00   1.4488E+02  0.000E+00  0.000E+00  0.000E+00  1.02969E+03  2.269E+00  5.521E+01  5.584E-01  1.040E+00
   1   13    6     8     1    1.6814E+02  1.1729E+00   1.6697E+02  0.000E+00  0.000E+00  0.000E+00  1.02481E+03  2.936E+00  4.258E+01  4.339E-01  9.011E-01
   1   13    5     8     2    1.6697E+02  4.0811E-01   1.6656E+02  0.000E+00  0.000E+00  0.000E+00  1.01856E+03  2.931E+00  4.250E+01  4.331E-01  3.141E-01
   1   13    4     8     3    1.6656E+02 -1.6525E+00   1.6821E+02  0.000E+00  0.000E+00  0.000E+00  1.01231E+03  2.935E+00  4.256E+01  4.337E+00 -1.270E-01
   1   13    3     8     4    1.6821E+02 -3.2706E+00   1.7149E+02  0.000E+00  0.000E+00  0.000E+00  1.00608E+03  2.951E+00  4.279E+01  4.361E+00 -2.500E-01
   1   13    2     8     5    1.7149E+02 -2.4812E+00   1.7397E+02  0.000E+00  0.000E+00  0.000E+00  9.99845E+02  2.970E+00  4.306E+01  4.388E+00 -1.885E-01
   1   13    1     8     6    1.7397E+02 -1.9567E+00   1.7592E+02  0.000E+00  0.000E+00  0.000E+00  9.94859E+02  2.984E+00  4.327E+01  2.646E+00 -2.465E-01





UNSATURATED ZONE PACKAGE VOLUMETRIC BUDGET FOR  TIME STEP    30 STRESS PERIOD   47
  ------------------------------------------------------------------------------



     CUMULATIVE VOLUMES      L**3       RATES FOR THIS TIME STEP      L**3/T
     ------------------                 ------------------------

           IN:                                      IN:
           ---                                      ---
        INFILTRATION =  2005965310.0543          INFILTRATION =           0.8475

          OUT:                                     OUT:
          ----                                     ----
              UZF ET =  1717819294.9633                UZF ET =           0.8475
        UZF RECHARGE =   288067117.9722          UZF RECHARGE =           0.0004

            IN - OUT =       78897.1188              IN - OUT =      -4.0421E-04

          STORAGE:                                 STORAGE:
          --------                                 --------
      STORAGE CHANGE =       78868.9532        STORAGE CHANGE =      -4.0421E-04

 PERCENT DISCREPANCY IS DIFFERENCE BETWEEN IN-OUT MINUS CHANGE IN STORAGE
 DIVIDED BY THE AVERAGE OF IN AND OUT TIMES 100

 PERCENT DISCREPANCY =           0.00     PERCENT DISCREPANCY =           0.00






1
  VOLUMETRIC BUDGET FOR AGRICULTURAL FIELDS AT  END OF TIME STEP   30, STRESS PERIOD  47
  ------------------------------------------------------------------------------

     CUMULATIVE VOLUMES      L**3       RATES FOR THIS TIME STEP      L**3/T
     ------------------                 ------------------------

           IN:                                      IN:
           ---                                      ---
               AG WELLS  =  1903360384.0000                 AG WELLS  =           0.0000
      DIVERSION SEGMENTS =           0.0000        DIVERSION SEGMENTS =           0.0000
           GW IRRIGATION =           0.0000             GW IRRIGATION =           0.0000
           SW IRRIGATION =           0.0000             SW IRRIGATION =           0.0000
        SYSTEM LOSSES GW =           0.0000          SYSTEM LOSSES GW =           0.0000
        SYSTEM LOSSES SW =           0.0000          SYSTEM LOSSES SW =           0.0000

                TOTAL IN =  1903360384.0000                  TOTAL IN =           0.0000

          OUT:                                     OUT:
          ----                                     ----
               AG WELLS  =           0.0000                 AG WELLS  =           0.0000
      DIVERSION SEGMENTS =           0.0000        DIVERSION SEGMENTS =           0.0000
           GW IRRIGATION =  1903360384.0000             GW IRRIGATION =           0.0000
           SW IRRIGATION =           0.0000             SW IRRIGATION =           0.0000
        SYSTEM LOSSES GW =           0.0000          SYSTEM LOSSES GW =           0.0000
        SYSTEM LOSSES SW =           0.0000          SYSTEM LOSSES SW =           0.0000

               TOTAL OUT =  1903360384.0000                 TOTAL OUT =           0.0000

                IN - OUT =           0.0000                  IN - OUT =           0.0000

     PERCENT DISCREPANCY =           0.00         PERCENT DISCREPANCY =           0.00



1
  VOLUMETRIC BUDGET FOR ENTIRE MODEL AT END OF TIME STEP   30, STRESS PERIOD  47
  ------------------------------------------------------------------------------

     CUMULATIVE VOLUMES      L**3       RATES FOR THIS TIME STEP      L**3/T
     ------------------                 ------------------------

           IN:                                      IN:
           ---                                      ---
             STORAGE     =  2401495040.0000               STORAGE     =          11.0003
       CONSTANT HEAD     =           0.0000         CONSTANT HEAD     =           0.0000
     HEAD DEP BOUNDS     =    34667764.0000       HEAD DEP BOUNDS     =           0.2888
      STREAM LEAKAGE     =  1485706240.0000        STREAM LEAKAGE     =          12.4377
        UZF RECHARGE     =   288067168.0000          UZF RECHARGE     =       4.0421E-04
               GW ET     =           0.0000                 GW ET     =           0.0000
     SURFACE LEAKAGE     =           0.0000       SURFACE LEAKAGE     =           0.0000
           AG WELLS      =           0.0000             AG WELLS      =           0.0000

                TOTAL IN =  4209936128.0000                  TOTAL IN =          23.7271

          OUT:                                     OUT:
          ----                                     ----
             STORAGE     =  1033675136.0000               STORAGE     =          14.0773
       CONSTANT HEAD     =           0.0000         CONSTANT HEAD     =           0.0000
     HEAD DEP BOUNDS     =    35309428.0000       HEAD DEP BOUNDS     =           0.2888
      STREAM LEAKAGE     =  1220041088.0000        STREAM LEAKAGE     =           9.3610
        UZF RECHARGE     =           0.0000          UZF RECHARGE     =           0.0000
               GW ET     =    17516984.0000                 GW ET     =           0.0000
     SURFACE LEAKAGE     =           0.0000       SURFACE LEAKAGE     =           0.0000
           AG WELLS      =  1903360384.0000             AG WELLS      =           0.0000

               TOTAL OUT =  4209903104.0000                 TOTAL OUT =          23.7271

                IN - OUT =       33024.0000                  IN - OUT =       1.7166E-05

     PERCENT DISCREPANCY =           0.00         PERCENT DISCREPANCY =           0.00






         TIME SUMMARY AT END OF TIME STEP   30 IN STRESS PERIOD   47
                    SECONDS     MINUTES      HOURS       DAYS        YEARS
                    -----------------------------------------------------------
   TIME STEP LENGTH  87667.      1461.1      24.352      1.0147     2.77799E-03
 STRESS PERIOD TIME 2.63000E+06  43833.      730.56      30.440     8.33397E-02
         TOTAL TIME 1.21065E+08 2.01775E+06  33629.      1401.2      3.8363    
1
1
                            STRESS PERIOD NO.   48, LENGTH =   2630000.    
                            -----------------------------------------------

                              NUMBER OF TIME STEPS =    30

                               MULTIPLIER FOR DELT =     1.000

                            INITIAL TIME STEP SIZE =   87666.66    

 REUSING NON-PARAMETER GHB CELLS FROM LAST STRESS PERIOD

      2 GHB CELLS

 REUSING STREAM SEGMENT DATA FROM LAST STRESS PERIOD



            AREAL INFILTRATION RATE
 READING ON UNIT   19 WITH FORMAT: (FREE)              

            1           2           3           4           5           6           7           8           9          10
 ........................................................................................................................
   1   1.0000E-10  2.0000E-10   0.000       0.000       0.000       0.000       0.000       0.000       0.000       0.000    
   2   2.0000E-10  1.0000E-10  2.0000E-10   0.000       0.000      8.0000E-10  8.0000E-10  5.0000E-10   0.000       0.000    
   3    0.000      5.0000E-10  1.0000E-10  1.0000E-10  8.0000E-10  8.0000E-10  5.0000E-10  5.0000E-10   0.000       0.000    
   4   8.0000E-10  5.0000E-10  1.0000E-10  1.0000E-10  1.0000E-10  1.0000E-10  1.0000E-10  1.0000E-10  2.0000E-10   0.000    
   5   8.0000E-10  5.0000E-10  1.0000E-10  1.0000E-10  1.0000E-10  1.0000E-10  1.0000E-10  1.0000E-10  1.0000E-10  1.0000E-10
   6   8.0000E-10  5.0000E-10  5.0000E-10  2.0000E-10  2.0000E-10  1.0000E-10  1.0000E-10  1.0000E-10  1.0000E-10  5.0000E-10
   7   8.0000E-10  5.0000E-10  5.0000E-10  2.0000E-10  2.0000E-10  1.0000E-10  1.0000E-10  2.0000E-10  2.0000E-10   0.000    
   8    0.000      5.0000E-10  5.0000E-10  2.0000E-10  2.0000E-10  1.0000E-10  1.0000E-10  2.0000E-10  5.0000E-10   0.000    
   9    0.000      5.0000E-10  5.0000E-10  2.0000E-10  2.0000E-10  1.0000E-10  1.0000E-10  2.0000E-10  5.0000E-10   0.000    
  10    0.000      5.0000E-10  5.0000E-10  2.0000E-10  2.0000E-10  1.0000E-10  1.0000E-10  2.0000E-10  5.0000E-10  8.0000E-10
  11    0.000      1.0000E-10  1.0000E-10  1.0000E-10  1.0000E-10  1.0000E-10  1.0000E-10  2.0000E-10  5.0000E-10   0.000    
  12   1.0000E-10  1.0000E-10  1.0000E-10  1.0000E-10  1.0000E-10  1.0000E-10  1.0000E-10  1.0000E-10  2.0000E-10   0.000    
  13   1.0000E-10  1.0000E-10  2.0000E-10  2.0000E-10  2.0000E-10  2.0000E-10  2.0000E-10  1.0000E-10  1.0000E-10   0.000    
  14    0.000      2.0000E-10  5.0000E-10  5.0000E-10  5.0000E-10  5.0000E-10  5.0000E-10  2.0000E-10  1.0000E-10   0.000    
  15    0.000       0.000      8.0000E-10  8.0000E-10  8.0000E-10  8.0000E-10   0.000       0.000       0.000       0.000    

                  ET RATE =  5.000000E-10

 USING ET EXTINCTION DEPTH FROM PREVIOUS STRESS PERIOD. CURRENT PERIOD IS:      48

 USING EXTINCTION WATER CONTENT FROM PREVIOUS STRESS PERIOD. CURRENT PERIOD IS:      48

 USING AIR ENTRY PRESSURE FROM PREVIOUS STRESS PERIOD. CURRENT PERIOD IS:      48

 USING ROOT PRESSURE HEAD FROM PREVIOUS STRESS PERIOD. CURRENT PERIOD IS:      48

 USING ROOT ACTIVITY FROM PREVIOUS STRESS PERIOD. CURRENT PERIOD IS:      48

 PROCESSING AG STRESS PERIOD DATA

 READING AG STRESS PERIOD DATA

 READING IRRIGATION WELL

 END PROCESSING AG STRESS PERIOD DATA OPTIONS
 
 SOLVING FOR HEAD 
                                                   Max.-Head-Change                         Max.-Flux-Residual
  Residual-Control   Outer-Iter.   Inner-Iter.     Column Row Layer    Maximum-Head-Change  Column Row Layer    Maximum-Flux-Residual          L2-NORM 
          0                 1           2             4    7     1       0.3553263366E-01       4    7    1         0.1875967560E+01      0.4276247664E+01
          0                 2           2             4    7     1      -0.3454521376E-02       4    7    1        -0.1874974274E+00      0.4274760420E+00
          0                 3           2             4    7     1       0.2350635188E-03       4    7    1         0.1311495682E-01      0.2990878759E-01
          0                 4           1             4    7     1      -0.9341727728E-05       4    7    1        -0.5357323166E-03      0.1222283542E-02

    ------------------------------------------------
       NWT REQUIRED            4 OUTER ITERATIONS 
       AND A TOTAL OF          7 INNER ITERATIONS.
    ------------------------------------------------

 NO OUTPUT CONTROL FOR STRESS PERIOD   48   TIME STEP    1
 
 SOLVING FOR HEAD 
                                                   Max.-Head-Change                         Max.-Flux-Residual
  Residual-Control   Outer-Iter.   Inner-Iter.     Column Row Layer    Maximum-Head-Change  Column Row Layer    Maximum-Flux-Residual          L2-NORM 
          0                 1           2             4    7     1       0.3498322441E-01       4    7    1         0.1846181476E+01      0.4227978661E+01
          0                 2           2             4    7     1      -0.3401105859E-02       4    7    1        -0.1845203072E+00      0.4226502537E+00
          0                 3           2             4    7     1       0.2314287933E-03       4    7    1         0.1290671137E-01      0.2957109320E-01
          0                 4           1             4    7     1      -0.9197275055E-05       4    7    1        -0.5272254366E-03      0.1208476217E-02

    ------------------------------------------------
       NWT REQUIRED            4 OUTER ITERATIONS 
       AND A TOTAL OF          7 INNER ITERATIONS.
    ------------------------------------------------

 NO OUTPUT CONTROL FOR STRESS PERIOD   48   TIME STEP    2
 
 SOLVING FOR HEAD 
                                                   Max.-Head-Change                         Max.-Flux-Residual
  Residual-Control   Outer-Iter.   Inner-Iter.     Column Row Layer    Maximum-Head-Change  Column Row Layer    Maximum-Flux-Residual          L2-NORM 
          0                 1           2             4    7     1       0.3445610502E-01       4    7    1         0.1817637285E+01      0.4181177195E+01
          0                 2           2             4    7     1      -0.3349857490E-02       4    7    1        -0.1816673174E+00      0.4179712276E+00
          0                 3           2             4    7     1       0.2279415363E-03       4    7    1         0.1270714881E-01      0.2924366680E-01
          0                 4           1             4    7     1      -0.9058682723E-05       4    7    1        -0.5190732436E-03      0.1195102712E-02

    ------------------------------------------------
       NWT REQUIRED            4 OUTER ITERATIONS 
       AND A TOTAL OF          7 INNER ITERATIONS.
    ------------------------------------------------

 NO OUTPUT CONTROL FOR STRESS PERIOD   48   TIME STEP    3
 
 SOLVING FOR HEAD 
                                                   Max.-Head-Change                         Max.-Flux-Residual
  Residual-Control   Outer-Iter.   Inner-Iter.     Column Row Layer    Maximum-Head-Change  Column Row Layer    Maximum-Flux-Residual          L2-NORM 
          0                 1           2             4    7     1       0.3394973903E-01       4    7    1         0.1790248788E+01      0.4135723227E+01
          0                 2           2             4    7     1      -0.3300626888E-02       4    7    1        -0.1789298421E+00      0.4134269594E+00
          0                 3           2             4    7     1       0.2245915838E-03       4    7    1         0.1251566649E-01      0.2892567904E-01
          0                 4           1             4    7     1      -0.8925548130E-05       4    7    1        -0.5112511635E-03      0.1182086383E-02

    ------------------------------------------------
       NWT REQUIRED            4 OUTER ITERATIONS 
       AND A TOTAL OF          7 INNER ITERATIONS.
    ------------------------------------------------

 NO OUTPUT CONTROL FOR STRESS PERIOD   48   TIME STEP    4
 
 SOLVING FOR HEAD 
                                                   Max.-Head-Change                         Max.-Flux-Residual
  Residual-Control   Outer-Iter.   Inner-Iter.     Column Row Layer    Maximum-Head-Change  Column Row Layer    Maximum-Flux-Residual          L2-NORM 
          0                 1           2             4    7     1       0.3346284343E-01       4    7    1         0.1763943587E+01      0.4091551636E+01
          0                 2           2             4    7     1      -0.3253289308E-02       4    7    1        -0.1763006448E+00      0.4090109243E+00
          0                 3           2             4    7     1       0.2213704461E-03       4    7    1         0.1233175818E-01      0.2861668475E-01
          0                 4           1             4    7     1      -0.8797532685E-05       4    7    1        -0.5037384844E-03      0.1169480388E-02

    ------------------------------------------------
       NWT REQUIRED            4 OUTER ITERATIONS 
       AND A TOTAL OF          7 INNER ITERATIONS.
    ------------------------------------------------

 NO OUTPUT CONTROL FOR STRESS PERIOD   48   TIME STEP    5
 
 SOLVING FOR HEAD 
                                                   Max.-Head-Change                         Max.-Flux-Residual
  Residual-Control   Outer-Iter.   Inner-Iter.     Column Row Layer    Maximum-Head-Change  Column Row Layer    Maximum-Flux-Residual          L2-NORM 
          0                 1           2             4    7     1       0.3299397132E-01       4    7    1         0.1738640628E+01      0.4048563933E+01
          0                 2           2             4    7     1      -0.3207704074E-02       4    7    1        -0.1737716241E+00      0.4047132654E+00
          0                 3           2             4    7     1       0.2182685512E-03       4    7    1         0.1215485721E-01      0.2831593882E-01
          0                 4           1             4    7     1      -0.8674256353E-05       4    7    1        -0.4965120688E-03      0.1157170341E-02

    ------------------------------------------------
       NWT REQUIRED            4 OUTER ITERATIONS 
       AND A TOTAL OF          7 INNER ITERATIONS.
    ------------------------------------------------

 NO OUTPUT CONTROL FOR STRESS PERIOD   48   TIME STEP    6
 
 SOLVING FOR HEAD 
                                                   Max.-Head-Change                         Max.-Flux-Residual
  Residual-Control   Outer-Iter.   Inner-Iter.     Column Row Layer    Maximum-Head-Change  Column Row Layer    Maximum-Flux-Residual          L2-NORM 
          0                 1           2             4    7     1       0.3254218432E-01       4    7    1         0.1714286689E+01      0.4006691985E+01
          0                 2           2             4    7     1      -0.3163779952E-02       4    7    1        -0.1713374603E+00      0.4005271818E+00
          0                 3           2             4    7     1       0.2152796909E-03       4    7    1         0.1198459147E-01      0.2802302400E-01
          0                 4           1             4    7     1      -0.8555472646E-05       4    7    1        -0.4895567204E-03      0.1145201834E-02

    ------------------------------------------------
       NWT REQUIRED            4 OUTER ITERATIONS 
       AND A TOTAL OF          7 INNER ITERATIONS.
    ------------------------------------------------

 NO OUTPUT CONTROL FOR STRESS PERIOD   48   TIME STEP    7
 
 SOLVING FOR HEAD 
                                                   Max.-Head-Change                         Max.-Flux-Residual
  Residual-Control   Outer-Iter.   Inner-Iter.     Column Row Layer    Maximum-Head-Change  Column Row Layer    Maximum-Flux-Residual          L2-NORM 
          0                 1           2             4    7     1       0.3210622452E-01       4    7    1         0.1690811319E+01      0.3965864401E+01
          0                 2           2             4    7     1      -0.3121394639E-02       4    7    1        -0.1689911115E+00      0.3964455475E+00
          0                 3           2             4    7     1       0.2123955417E-03       4    7    1         0.1182046834E-01      0.2773742614E-01
          0                 4           1             4    7     1      -0.8440850340E-05       4    7    1        -0.4828522806E-03      0.1133523361E-02

    ------------------------------------------------
       NWT REQUIRED            4 OUTER ITERATIONS 
       AND A TOTAL OF          7 INNER ITERATIONS.
    ------------------------------------------------

 NO OUTPUT CONTROL FOR STRESS PERIOD   48   TIME STEP    8
 
 SOLVING FOR HEAD 
                                                   Max.-Head-Change                         Max.-Flux-Residual
  Residual-Control   Outer-Iter.   Inner-Iter.     Column Row Layer    Maximum-Head-Change  Column Row Layer    Maximum-Flux-Residual          L2-NORM 
          0                 1           2             4    7     1       0.3168505737E-01       4    7    1         0.1668156563E+01      0.3926020226E+01
          0                 2           2             4    7     1      -0.3080447549E-02       4    7    1        -0.1667267849E+00      0.3924622416E+00
          0                 3           2             4    7     1       0.2096092603E-03       4    7    1         0.1166208266E-01      0.2745869963E-01
          0                 4           1             4    7     1      -0.8330117506E-05       4    7    1        -0.4763822412E-03      0.1122139626E-02

    ------------------------------------------------
       NWT REQUIRED            4 OUTER ITERATIONS 
       AND A TOTAL OF          7 INNER ITERATIONS.
    ------------------------------------------------

 NO OUTPUT CONTROL FOR STRESS PERIOD   48   TIME STEP    9
 
 SOLVING FOR HEAD 
                                                   Max.-Head-Change                         Max.-Flux-Residual
  Residual-Control   Outer-Iter.   Inner-Iter.     Column Row Layer    Maximum-Head-Change  Column Row Layer    Maximum-Flux-Residual          L2-NORM 
          0                 1           2             4    7     1       0.3127786032E-01       4    7    1         0.1646276049E+01      0.3887108920E+01
          0                 2           2             4    7     1      -0.3040858710E-02       4    7    1        -0.1645398454E+00      0.3885722219E+00
          0                 3           2             4    7     1       0.2069154039E-03       4    7    1         0.1150911018E-01      0.2718651662E-01
          0                 4           1             4    7     1      -0.8223058393E-05       4    7    1        -0.4701333423E-03      0.1111010864E-02

    ------------------------------------------------
       NWT REQUIRED            4 OUTER ITERATIONS 
       AND A TOTAL OF          7 INNER ITERATIONS.
    ------------------------------------------------

 NO OUTPUT CONTROL FOR STRESS PERIOD   48   TIME STEP   10
 
 SOLVING FOR HEAD 
                                                   Max.-Head-Change                         Max.-Flux-Residual
  Residual-Control   Outer-Iter.   Inner-Iter.     Column Row Layer    Maximum-Head-Change  Column Row Layer    Maximum-Flux-Residual          L2-NORM 
          0                 1           2             4    7     1       0.3088374409E-01       4    7    1         0.1625119862E+01      0.3849078274E+01
          0                 2           2             4    7     1      -0.3002541659E-02       4    7    1        -0.1624253041E+00      0.3847702683E+00
          0                 3           2             4    7     1       0.2043080898E-03       4    7    1         0.1136120194E-01      0.2692047687E-01
          0                 4           1             4    7     1      -0.8119438602E-05       4    7    1        -0.4640913244E-03      0.1100134388E-02

    ------------------------------------------------
       NWT REQUIRED            4 OUTER ITERATIONS 
       AND A TOTAL OF          7 INNER ITERATIONS.
    ------------------------------------------------

 NO OUTPUT CONTROL FOR STRESS PERIOD   48   TIME STEP   11
 
 SOLVING FOR HEAD 
                                                   Max.-Head-Change                         Max.-Flux-Residual
  Residual-Control   Outer-Iter.   Inner-Iter.     Column Row Layer    Maximum-Head-Change  Column Row Layer    Maximum-Flux-Residual          L2-NORM 
          0                 1           2             4    7     1       0.3050189080E-01       4    7    1         0.1604641892E+01      0.3811880966E+01
          0                 2           2             4    7     1      -0.2965416876E-02       4    7    1        -0.1603785520E+00      0.3810516477E+00
          0                 3           2             4    7     1       0.2017819052E-03       4    7    1         0.1121803548E-01      0.2666029031E-01
          0                 4           1             4    7     1      -0.8019042730E-05       4    7    1        -0.4582430029E-03      0.1089506008E-02

    ------------------------------------------------
       NWT REQUIRED            4 OUTER ITERATIONS 
       AND A TOTAL OF          7 INNER ITERATIONS.
    ------------------------------------------------

 NO OUTPUT CONTROL FOR STRESS PERIOD   48   TIME STEP   12
 
 SOLVING FOR HEAD 
                                                   Max.-Head-Change                         Max.-Flux-Residual
  Residual-Control   Outer-Iter.   Inner-Iter.     Column Row Layer    Maximum-Head-Change  Column Row Layer    Maximum-Flux-Residual          L2-NORM 
          0                 1           2             4    7     1       0.3013153958E-01       4    7    1         0.1584799736E+01      0.3775476549E+01
          0                 2           2             4    7     1      -0.2929410386E-02       4    7    1        -0.1583953507E+00      0.3774123157E+00
          0                 3           2             4    7     1       0.1993318178E-03       4    7    1         0.1107931439E-01      0.2640564360E-01
          0                 4           1             4    7     1      -0.7921671720E-05       4    7    1        -0.4525762993E-03      0.1079103838E-02

    ------------------------------------------------
       NWT REQUIRED            4 OUTER ITERATIONS 
       AND A TOTAL OF          7 INNER ITERATIONS.
    ------------------------------------------------

 NO OUTPUT CONTROL FOR STRESS PERIOD   48   TIME STEP   13
 
 SOLVING FOR HEAD 
                                                   Max.-Head-Change                         Max.-Flux-Residual
  Residual-Control   Outer-Iter.   Inner-Iter.     Column Row Layer    Maximum-Head-Change  Column Row Layer    Maximum-Flux-Residual          L2-NORM 
          0                 1           2             4    7     1       0.2977212243E-01       4    7    1         0.1565561212E+01      0.3739826699E+01
          0                 2           2             4    7     1      -0.2894466964E-02       4    7    1        -0.1564724836E+00      0.3738484370E+00
          0                 3           2             4    7     1       0.1969540682E-03       4    7    1         0.1094481363E-01      0.2615628802E-01
          0                 4           1             4    7     1      -0.7827175331E-05       4    7    1        -0.4470819772E-03      0.1068906291E-02

    ------------------------------------------------
       NWT REQUIRED            4 OUTER ITERATIONS 
       AND A TOTAL OF          7 INNER ITERATIONS.
    ------------------------------------------------

 NO OUTPUT CONTROL FOR STRESS PERIOD   48   TIME STEP   14
 
 SOLVING FOR HEAD 
                                                   Max.-Head-Change                         Max.-Flux-Residual
  Residual-Control   Outer-Iter.   Inner-Iter.     Column Row Layer    Maximum-Head-Change  Column Row Layer    Maximum-Flux-Residual          L2-NORM 
          0                 1           2             4    7     1       0.2942284773E-01       4    7    1         0.1546882331E+01      0.3704887749E+01
          0                 2           2             4    7     1      -0.2860509643E-02       4    7    1        -0.1546055539E+00      0.3703556560E+00
          0                 3           2             4    7     1       0.1946434207E-03       4    7    1         0.1081422569E-01      0.2591190163E-01
          0                 4           1             4    7     1      -0.7735346103E-05       4    7    1        -0.4417475038E-03      0.1058917034E-02

    ------------------------------------------------
       NWT REQUIRED            4 OUTER ITERATIONS 
       AND A TOTAL OF          7 INNER ITERATIONS.
    ------------------------------------------------

 NO OUTPUT CONTROL FOR STRESS PERIOD   48   TIME STEP   15
 
 SOLVING FOR HEAD 
                                                   Max.-Head-Change                         Max.-Flux-Residual
  Residual-Control   Outer-Iter.   Inner-Iter.     Column Row Layer    Maximum-Head-Change  Column Row Layer    Maximum-Flux-Residual          L2-NORM 
          0                 1           2             4    7     1       0.2908338052E-01       4    7    1         0.1528743859E+01      0.3670643639E+01
          0                 2           2             4    7     1      -0.2827505856E-02       4    7    1        -0.1527926391E+00      0.3669323377E+00
          0                 3           2             4    7     1       0.1923976581E-03       4    7    1         0.1068741605E-01      0.2567236531E-01
          0                 4           1             4    7     1      -0.7646095503E-05       4    7    1        -0.4365673844E-03      0.1049122018E-02

    ------------------------------------------------
       NWT REQUIRED            4 OUTER ITERATIONS 
       AND A TOTAL OF          7 INNER ITERATIONS.
    ------------------------------------------------

 NO OUTPUT CONTROL FOR STRESS PERIOD   48   TIME STEP   16
 
 SOLVING FOR HEAD 
                                                   Max.-Head-Change                         Max.-Flux-Residual
  Residual-Control   Outer-Iter.   Inner-Iter.     Column Row Layer    Maximum-Head-Change  Column Row Layer    Maximum-Flux-Residual          L2-NORM 
          0                 1           2             4    7     1       0.2875288736E-01       4    7    1         0.1511099347E+01      0.3637053519E+01
          0                 2           2             4    7     1      -0.2795374570E-02       4    7    1        -0.1510290963E+00      0.3635744230E+00
          0                 3           2             4    7     1       0.1902112668E-03       4    7    1         0.1056405994E-01      0.2543743106E-01
          0                 4           1             4    7     1      -0.7559204904E-05       4    7    1        -0.4315283686E-03      0.1039526619E-02

    ------------------------------------------------
       NWT REQUIRED            4 OUTER ITERATIONS 
       AND A TOTAL OF          7 INNER ITERATIONS.
    ------------------------------------------------

 NO OUTPUT CONTROL FOR STRESS PERIOD   48   TIME STEP   17
 
 SOLVING FOR HEAD 
                                                   Max.-Head-Change                         Max.-Flux-Residual
  Residual-Control   Outer-Iter.   Inner-Iter.     Column Row Layer    Maximum-Head-Change  Column Row Layer    Maximum-Flux-Residual          L2-NORM 
          0                 1           2             4    7     1       0.2843098813E-01       4    7    1         0.1493927396E+01      0.3604095610E+01
          0                 2           2             4    7     1      -0.2764078829E-02       4    7    1        -0.1493127867E+00      0.3602797230E+00
          0                 3           2             4    7     1       0.1880817308E-03       4    7    1         0.1044400775E-01      0.2520690132E-01
          0                 4           1             4    7     1      -0.7474573108E-05       4    7    1        -0.4266242763E-03      0.1030096114E-02

    ------------------------------------------------
       NWT REQUIRED            4 OUTER ITERATIONS 
       AND A TOTAL OF          7 INNER ITERATIONS.
    ------------------------------------------------

 NO OUTPUT CONTROL FOR STRESS PERIOD   48   TIME STEP   18
 
 SOLVING FOR HEAD 
                                                   Max.-Head-Change                         Max.-Flux-Residual
  Residual-Control   Outer-Iter.   Inner-Iter.     Column Row Layer    Maximum-Head-Change  Column Row Layer    Maximum-Flux-Residual          L2-NORM 
          0                 1           2             4    7     1       0.2811733239E-01       4    7    1         0.1477208296E+01      0.3571748163E+01
          0                 2           2             4    7     1      -0.2733584560E-02       4    7    1        -0.1476417404E+00      0.3570460777E+00
          0                 3           2             4    7     1       0.1860067330E-03       4    7    1         0.1032712170E-01      0.2498065533E-01
          0                 4           1             4    7     1      -0.7392109165E-05       4    7    1        -0.4218495365E-03      0.1020853434E-02

    ------------------------------------------------
       NWT REQUIRED            4 OUTER ITERATIONS 
       AND A TOTAL OF          7 INNER ITERATIONS.
    ------------------------------------------------

 NO OUTPUT CONTROL FOR STRESS PERIOD   48   TIME STEP   19
 
 SOLVING FOR HEAD 
                                                   Max.-Head-Change                         Max.-Flux-Residual
  Residual-Control   Outer-Iter.   Inner-Iter.     Column Row Layer    Maximum-Head-Change  Column Row Layer    Maximum-Flux-Residual          L2-NORM 
          0                 1           2             4    7     1       0.2781119695E-01       4    7    1         0.1460902063E+01      0.3539972455E+01
          0                 2           2             4    7     1      -0.2703821450E-02       4    7    1        -0.1460119606E+00      0.3538695883E+00
          0                 3           2             4    7     1       0.1839814882E-03       4    7    1         0.1021312221E-01      0.2475835380E-01
          0                 4           1             4    7     1      -0.7311622654E-05       4    7    1        -0.4171927262E-03      0.1012781402E-02

    ------------------------------------------------
       NWT REQUIRED            4 OUTER ITERATIONS 
       AND A TOTAL OF          7 INNER ITERATIONS.
    ------------------------------------------------

 NO OUTPUT CONTROL FOR STRESS PERIOD   48   TIME STEP   20
 
 SOLVING FOR HEAD 
                                                   Max.-Head-Change                         Max.-Flux-Residual
  Residual-Control   Outer-Iter.   Inner-Iter.     Column Row Layer    Maximum-Head-Change  Column Row Layer    Maximum-Flux-Residual          L2-NORM 
          0                 1           2             4    7     1       0.2751257372E-01       4    7    1         0.1445007561E+01      0.3508761333E+01
          0                 2           2             4    7     1      -0.2674788712E-02       4    7    1        -0.1444233339E+00      0.3507495513E+00
          0                 3           2             4    7     1       0.1820059429E-03       4    7    1         0.1010200134E-01      0.2454011183E-01
          0                 4           1             4    7     1      -0.7233111387E-05       4    7    1        -0.4126535209E-03      0.1002853384E-02

    ------------------------------------------------
       NWT REQUIRED            4 OUTER ITERATIONS 
       AND A TOTAL OF          7 INNER ITERATIONS.
    ------------------------------------------------

 NO OUTPUT CONTROL FOR STRESS PERIOD   48   TIME STEP   21
 
 SOLVING FOR HEAD 
                                                   Max.-Head-Change                         Max.-Flux-Residual
  Residual-Control   Outer-Iter.   Inner-Iter.     Column Row Layer    Maximum-Head-Change  Column Row Layer    Maximum-Flux-Residual          L2-NORM 
          0                 1           2             4    7     1       0.2722066555E-01       4    7    1         0.1429480736E+01      0.3478089026E+01
          0                 2           2             4    7     1      -0.2646408842E-02       4    7    1        -0.1428714569E+00      0.3476834048E+00
          0                 3           2             4    7     1       0.1800748227E-03       4    7    1         0.9993451070E-02      0.2432559700E-01
          0                 4           1             4    7     1      -0.7156365601E-05       4    7    1        -0.4082193100E-03      0.9940913690E-03

    ------------------------------------------------
       NWT REQUIRED            4 OUTER ITERATIONS 
       AND A TOTAL OF          7 INNER ITERATIONS.
    ------------------------------------------------

 NO OUTPUT CONTROL FOR STRESS PERIOD   48   TIME STEP   22
 
 SOLVING FOR HEAD 
                                                   Max.-Head-Change                         Max.-Flux-Residual
  Residual-Control   Outer-Iter.   Inner-Iter.     Column Row Layer    Maximum-Head-Change  Column Row Layer    Maximum-Flux-Residual          L2-NORM 
          0                 1           2             4    7     1       0.2693552247E-01       4    7    1         0.1414323894E+01      0.3447940442E+01
          0                 2           2             4    7     1      -0.2618686705E-02       4    7    1        -0.1413565602E+00      0.3446696045E+00
          0                 3           2             4    7     1       0.1781884591E-03       4    7    1         0.9887487541E-02      0.2411472218E-01
          0                 4           1             4    7     1      -0.7081398538E-05       4    7    1        -0.4038907596E-03      0.9854709741E-03

    ------------------------------------------------
       NWT REQUIRED            4 OUTER ITERATIONS 
       AND A TOTAL OF          7 INNER ITERATIONS.
    ------------------------------------------------

 NO OUTPUT CONTROL FOR STRESS PERIOD   48   TIME STEP   23
 
 SOLVING FOR HEAD 
                                                   Max.-Head-Change                         Max.-Flux-Residual
  Residual-Control   Outer-Iter.   Inner-Iter.     Column Row Layer    Maximum-Head-Change  Column Row Layer    Maximum-Flux-Residual          L2-NORM 
          0                 1           2             4    7     1       0.2665653160E-01       4    7    1         0.1399503263E+01      0.3418296794E+01
          0                 2           2             4    7     1      -0.2591562712E-02       4    7    1        -0.1398752681E+00      0.3417063041E+00
          0                 3           2             4    7     1       0.1763427971E-03       4    7    1         0.9783874617E-02      0.2390741656E-01
          0                 4           1             4    7     1      -0.7008048786E-05       4    7    1        -0.3996582363E-03      0.9773350872E-03

    ------------------------------------------------
       NWT REQUIRED            4 OUTER ITERATIONS 
       AND A TOTAL OF          7 INNER ITERATIONS.
    ------------------------------------------------

 NO OUTPUT CONTROL FOR STRESS PERIOD   48   TIME STEP   24
 
 SOLVING FOR HEAD 
                                                   Max.-Head-Change                         Max.-Flux-Residual
  Residual-Control   Outer-Iter.   Inner-Iter.     Column Row Layer    Maximum-Head-Change  Column Row Layer    Maximum-Flux-Residual          L2-NORM 
          0                 1           2             4    7     1       0.2638352271E-01       4    7    1         0.1385008887E+01      0.3389142231E+01
          0                 2           2             4    7     1      -0.2565020314E-02       4    7    1        -0.1384265854E+00      0.3387919020E+00
          0                 3           2             4    7     1       0.1745367111E-03       4    7    1         0.9682542690E-02      0.2370349063E-01
          0                 4           1             4    7     1      -0.6936272484E-05       4    7    1        -0.3955189186E-03      0.9686610242E-03

    ------------------------------------------------
       NWT REQUIRED            4 OUTER ITERATIONS 
       AND A TOTAL OF          7 INNER ITERATIONS.
    ------------------------------------------------

 NO OUTPUT CONTROL FOR STRESS PERIOD   48   TIME STEP   25
 
 SOLVING FOR HEAD 
                                                   Max.-Head-Change                         Max.-Flux-Residual
  Residual-Control   Outer-Iter.   Inner-Iter.     Column Row Layer    Maximum-Head-Change  Column Row Layer    Maximum-Flux-Residual          L2-NORM 
          0                 1           2             4    7     1       0.2611619951E-01       4    7    1         0.1370824666E+01      0.3360453738E+01
          0                 2           2             4    7     1      -0.2539030701E-02       4    7    1        -0.1370089029E+00      0.3359241073E+00
          0                 3           2             4    7     1       0.1727682404E-03       4    7    1         0.9583379207E-02      0.2350285056E-01
          0                 4           1             4    7     1      -0.6865991113E-05       4    7    1        -0.3914681847E-03      0.9604640308E-03

    ------------------------------------------------
       NWT REQUIRED            4 OUTER ITERATIONS 
       AND A TOTAL OF          7 INNER ITERATIONS.
    ------------------------------------------------

 NO OUTPUT CONTROL FOR STRESS PERIOD   48   TIME STEP   26
 
 SOLVING FOR HEAD 
                                                   Max.-Head-Change                         Max.-Flux-Residual
  Residual-Control   Outer-Iter.   Inner-Iter.     Column Row Layer    Maximum-Head-Change  Column Row Layer    Maximum-Flux-Residual          L2-NORM 
          0                 1           2             4    7     1       0.2585429231E-01       4    7    1         0.1356935237E+01      0.3332233114E+01
          0                 2           2             4    7     1      -0.2513567654E-02       4    7    1        -0.1356206852E+00      0.3331030987E+00
          0                 3           2             4    7     1       0.1710355997E-03       4    7    1         0.9486276715E-02      0.2330548864E-01
          0                 4           1             4    7     1      -0.6797133526E-05       4    7    1        -0.3875016168E-03      0.9524116621E-03

    ------------------------------------------------
       NWT REQUIRED            4 OUTER ITERATIONS 
       AND A TOTAL OF          7 INNER ITERATIONS.
    ------------------------------------------------

 NO OUTPUT CONTROL FOR STRESS PERIOD   48   TIME STEP   27
 
 SOLVING FOR HEAD 
                                                   Max.-Head-Change                         Max.-Flux-Residual
  Residual-Control   Outer-Iter.   Inner-Iter.     Column Row Layer    Maximum-Head-Change  Column Row Layer    Maximum-Flux-Residual          L2-NORM 
          0                 1           2             4    7     1       0.2559754876E-01       4    7    1         0.1343326618E+01      0.3304456697E+01
          0                 2           2             4    7     1      -0.2488606229E-02       4    7    1        -0.1342605346E+00      0.3302977267E+00
          0                 3           2             4    7     1       0.1693370928E-03       4    7    1         0.9391137489E-02      0.2310920760E-01
          0                 4           1             4    7     1      -0.6729632372E-05       4    7    1        -0.3836152578E-03      0.9443750621E-03

    ------------------------------------------------
       NWT REQUIRED            4 OUTER ITERATIONS 
       AND A TOTAL OF          7 INNER ITERATIONS.
    ------------------------------------------------

 NO OUTPUT CONTROL FOR STRESS PERIOD   48   TIME STEP   28
 
 SOLVING FOR HEAD 
                                                   Max.-Head-Change                         Max.-Flux-Residual
  Residual-Control   Outer-Iter.   Inner-Iter.     Column Row Layer    Maximum-Head-Change  Column Row Layer    Maximum-Flux-Residual          L2-NORM 
          0                 1           2             4    7     1       0.2534586889E-01       4    7    1         0.1329993023E+01      0.3277134756E+01
          0                 2           2             4    7     1      -0.2464137906E-02       4    7    1        -0.1329278727E+00      0.3275751780E+00
          0                 3           2             4    7     1       0.1676721400E-03       4    7    1         0.9297921078E-02      0.2291872725E-01
          0                 4           1             4    7     1      -0.6663465086E-05       4    7    1        -0.3798074627E-03      0.9365967426E-03

    ------------------------------------------------
       NWT REQUIRED            4 OUTER ITERATIONS 
       AND A TOTAL OF          7 INNER ITERATIONS.
    ------------------------------------------------

 NO OUTPUT CONTROL FOR STRESS PERIOD   48   TIME STEP   29
 
 SOLVING FOR HEAD 
                                                   Max.-Head-Change                         Max.-Flux-Residual
  Residual-Control   Outer-Iter.   Inner-Iter.     Column Row Layer    Maximum-Head-Change  Column Row Layer    Maximum-Flux-Residual          L2-NORM 
          0                 1           2             4    7     1       0.2509876019E-01       4    7    1         0.1316907375E+01      0.3250287703E+01
          0                 2           2             4    7     1      -0.2440113652E-02       4    7    1        -0.1316199931E+00      0.3249116925E+00
          0                 3           2             4    7     1       0.1660374040E-03       4    7    1         0.9206438154E-02      0.2273238561E-01
          0                 4           1             4    7     1      -0.6598498120E-05       4    7    1        -0.3760704481E-03      0.9289846013E-03

    ------------------------------------------------
       NWT REQUIRED            4 OUTER ITERATIONS 
       AND A TOTAL OF          7 INNER ITERATIONS.
    ------------------------------------------------

 NO OUTPUT CONTROL FOR STRESS PERIOD   48   TIME STEP   30



 STREAM LISTING     PERIOD     48   STEP       30

 LAYER ROW COL. STREAM  RCH.  FLOW INTO     FLOW TO   FLOW OUT OF   OVRLND.     DIRECT     STREAM       STREAM     STREAM     STREAM   STREAMBED  STREAMBED
                SEG.NO.  NO.  STRM. RCH.    AQUIFER    STRM. RCH.    RUNOFF     PRECIP       ET          HEAD       DEPTH      WIDTH   CONDCTNC.   GRADIENT

   1    1    1     1     1    1.9000E+01  2.1427E-01   1.8786E+01  0.000E+00  0.000E+00  0.000E+00  1.09413E+03  1.082E+00  1.166E+01  5.249E-02  1.361E+00
   1    2    2     1     2    1.8786E+01  3.3054E-01   1.8455E+01  0.000E+00  0.000E+00  0.000E+00  1.08914E+03  1.077E+00  1.158E+01  8.107E-02  1.359E+00
   1    3    3     1     3    1.8455E+01  2.8064E-01   1.8175E+01  0.000E+00  0.000E+00  0.000E+00  1.08349E+03  1.072E+00  1.149E+01  6.892E-02  1.357E+00
   1    3    4     1     4    1.8175E+01  2.5740E-01   1.7917E+01  0.000E+00  0.000E+00  0.000E+00  1.07848E+03  1.068E+00  1.140E+01  6.328E-02  1.356E+00
   1    4    5     2     1    1.5917E+01  3.0542E-01   1.5612E+01  0.000E+00  0.000E+00  0.000E+00  1.07285E+03  9.157E-01  1.200E+01  7.800E-02  1.305E+00
   1    5    6     2     2    1.5612E+01  2.3438E-01   1.5377E+01  0.000E+00  0.000E+00  0.000E+00  1.06742E+03  9.063E-01  1.200E+01  6.000E-02  1.302E+00
   1    6    6     2     3    1.5377E+01  2.3388E-01   1.5143E+01  0.000E+00  0.000E+00  0.000E+00  1.06269E+03  8.980E-01  1.200E+01  6.000E-02  1.299E+00
   1    7    6     2     4    1.5143E+01  2.3338E-01   1.4910E+01  0.000E+00  0.000E+00  0.000E+00  1.05797E+03  8.897E-01  1.200E+01  6.000E-02  1.297E+00
   1    8    6     2     5    1.4910E+01  2.3289E-01   1.4677E+01  0.000E+00  0.000E+00  0.000E+00  1.05324E+03  8.814E-01  1.200E+01  6.000E-02  1.294E+00
   1    3    5     3     1    2.0000E+00  2.8252E-01   1.7175E+00  0.000E+00  0.000E+00  0.000E+00  1.07555E+03  1.909E+00  9.636E+00  7.227E-02  1.955E+00
   1    3    6     3     2    1.7175E+00  2.4905E-01   1.4684E+00  0.000E+00  0.000E+00  0.000E+00  1.07264E+03  1.727E+00  8.909E+00  6.682E-02  1.864E+00
   1    3    7     3     3    1.4684E+00  1.9718E-01   1.2712E+00  0.000E+00  0.000E+00  0.000E+00  1.06987E+03  1.555E+00  8.218E+00  5.547E-02  1.777E+00
   1    4    8     3     4    1.2712E+00  2.2567E-01   1.0456E+00  0.000E+00  0.000E+00  0.000E+00  1.06682E+03  1.364E+00  7.455E+00  6.709E-02  1.682E+00
   1    5    8     3     5    1.0456E+00  1.5790E-01   8.8768E-01  0.000E+00  0.000E+00  0.000E+00  1.06362E+03  1.164E+00  6.655E+00  4.991E-02  1.582E+00
   1    6    8     3     6    8.8768E-01  5.5980E-02   8.3170E-01  0.000E+00  0.000E+00  0.000E+00  1.06158E+03  1.036E+00  6.145E+00  1.844E-02  1.518E+00
   1    5   10     4     1    1.0000E+01  9.0919E-02   9.9091E+00  0.000E+00  0.000E+00  0.000E+00  1.07836E+03  6.368E-01  1.000E+01  2.500E-02  1.212E+00
   1    5    9     4     2    9.9091E+00  1.8158E-01   9.7275E+00  0.000E+00  0.000E+00  0.000E+00  1.07154E+03  6.315E-01  1.000E+01  5.000E-02  1.211E+00
   1    6    8     4     3    9.7275E+00  1.2689E-01   9.6006E+00  0.000E+00  0.000E+00  0.000E+00  1.06381E+03  6.256E-01  1.000E+01  3.500E-02  1.209E+00
   1    6    8     5     1    1.0432E+01  2.2686E-01   1.0205E+01  0.000E+00  0.000E+00  0.000E+00  1.05868E+03  6.790E-01  1.542E+01  6.166E-02  1.226E+00
   1    7    7     5     2    1.0205E+01  2.7894E-01   9.9265E+00  0.000E+00  0.000E+00  0.000E+00  1.05417E+03  6.732E-01  1.519E+01  7.594E-02  1.224E+00
   1    8    7     5     3    9.9265E+00  1.9221E-01   9.7343E+00  0.000E+00  0.000E+00  0.000E+00  1.04992E+03  6.676E-01  1.497E+01  5.241E-02  1.223E+00
   1    8    6     5     4    9.7343E+00  1.3577E-01   9.5985E+00  0.000E+00  0.000E+00  0.000E+00  1.04691E+03  6.637E-01  1.482E+01  3.706E-02  1.221E+00
   1    9    6     6     1    2.4276E+01  2.5176E-01   2.4024E+01  0.000E+00  0.000E+00  0.000E+00  1.04392E+03  1.196E+00  1.200E+01  6.000E-02  1.399E+00
   1   10    7     6     2    2.4024E+01  2.5131E-01   2.3773E+01  0.000E+00  0.000E+00  0.000E+00  1.03937E+03  1.188E+00  1.200E+01  6.000E-02  1.396E+00
   1   11    7     6     3    2.3773E+01  2.5086E-01   2.3522E+01  0.000E+00  0.000E+00  0.000E+00  1.03482E+03  1.181E+00  1.200E+01  6.000E-02  1.394E+00
   1   12    7     6     4    2.3522E+01  2.5041E-01   2.3271E+01  0.000E+00  0.000E+00  0.000E+00  1.03026E+03  1.173E+00  1.200E+01  6.000E-02  1.391E+00
   1   13    7     6     5    2.3271E+01  1.2636E-02   2.3259E+01  0.000E+00  0.000E+00  0.000E+00  1.02708E+03  1.169E+00  1.200E+01  2.400E-02  1.755E-01
   1   14    9     7     1    1.5000E+02  1.3824E+00   1.4862E+02  0.000E+00  0.000E+00  0.000E+00  1.03987E+03  2.288E+00  5.529E+01  5.593E-01  8.239E-01
   1   13    8     7     2    1.4862E+02  1.9978E+00   1.4662E+02  0.000E+00  0.000E+00  0.000E+00  1.03478E+03  2.279E+00  5.525E+01  6.147E-01  1.083E+00
   1   13    7     7     3    1.4662E+02  1.7509E+00   1.4487E+02  0.000E+00  0.000E+00  0.000E+00  1.02969E+03  2.269E+00  5.521E+01  5.584E-01  1.045E+00
   1   13    6     8     1    1.6813E+02  1.1835E+00   1.6694E+02  0.000E+00  0.000E+00  0.000E+00  1.02481E+03  2.936E+00  4.257E+01  4.338E-01  9.094E-01
   1   13    5     8     2    1.6694E+02  4.1990E-01   1.6652E+02  0.000E+00  0.000E+00  0.000E+00  1.01856E+03  2.931E+00  4.250E+01  4.331E-01  3.232E-01
   1   13    4     8     3    1.6652E+02 -1.6083E+00   1.6813E+02  0.000E+00  0.000E+00  0.000E+00  1.01231E+03  2.935E+00  4.255E+01  4.336E+00 -1.236E-01
   1   13    3     8     4    1.6813E+02 -3.2517E+00   1.7138E+02  0.000E+00  0.000E+00  0.000E+00  1.00608E+03  2.951E+00  4.278E+01  4.360E+00 -2.486E-01
   1   13    2     8     5    1.7138E+02 -2.4780E+00   1.7386E+02  0.000E+00  0.000E+00  0.000E+00  9.99844E+02  2.969E+00  4.305E+01  4.387E+00 -1.883E-01
   1   13    1     8     6    1.7386E+02 -1.9561E+00   1.7582E+02  0.000E+00  0.000E+00  0.000E+00  9.94858E+02  2.983E+00  4.326E+01  2.645E+00 -2.465E-01





UNSATURATED ZONE PACKAGE VOLUMETRIC BUDGET FOR  TIME STEP    30 STRESS PERIOD   48
  ------------------------------------------------------------------------------



     CUMULATIVE VOLUMES      L**3       RATES FOR THIS TIME STEP      L**3/T
     ------------------                 ------------------------

           IN:                                      IN:
           ---                                      ---
        INFILTRATION =  2008194234.9271          INFILTRATION =           0.8475

          OUT:                                     OUT:
          ----                                     ----
              UZF ET =  1719791794.7668                UZF ET =           0.7500
        UZF RECHARGE =   288068059.2119          UZF RECHARGE =           0.0003

            IN - OUT =      334380.9483              IN - OUT =       9.7183E-02

          STORAGE:                                 STORAGE:
          --------                                 --------
      STORAGE CHANGE =      334352.8028        STORAGE CHANGE =       9.7183E-02

 PERCENT DISCREPANCY IS DIFFERENCE BETWEEN IN-OUT MINUS CHANGE IN STORAGE
 DIVIDED BY THE AVERAGE OF IN AND OUT TIMES 100

 PERCENT DISCREPANCY =           0.00     PERCENT DISCREPANCY =           0.00






1
  VOLUMETRIC BUDGET FOR AGRICULTURAL FIELDS AT  END OF TIME STEP   30, STRESS PERIOD  48
  ------------------------------------------------------------------------------

     CUMULATIVE VOLUMES      L**3       RATES FOR THIS TIME STEP      L**3/T
     ------------------                 ------------------------

           IN:                                      IN:
           ---                                      ---
               AG WELLS  =  1903360384.0000                 AG WELLS  =           0.0000
      DIVERSION SEGMENTS =           0.0000        DIVERSION SEGMENTS =           0.0000
           GW IRRIGATION =           0.0000             GW IRRIGATION =           0.0000
           SW IRRIGATION =           0.0000             SW IRRIGATION =           0.0000
        SYSTEM LOSSES GW =           0.0000          SYSTEM LOSSES GW =           0.0000
        SYSTEM LOSSES SW =           0.0000          SYSTEM LOSSES SW =           0.0000

                TOTAL IN =  1903360384.0000                  TOTAL IN =           0.0000

          OUT:                                     OUT:
          ----                                     ----
               AG WELLS  =           0.0000                 AG WELLS  =           0.0000
      DIVERSION SEGMENTS =           0.0000        DIVERSION SEGMENTS =           0.0000
           GW IRRIGATION =  1903360384.0000             GW IRRIGATION =           0.0000
           SW IRRIGATION =           0.0000             SW IRRIGATION =           0.0000
        SYSTEM LOSSES GW =           0.0000          SYSTEM LOSSES GW =           0.0000
        SYSTEM LOSSES SW =           0.0000          SYSTEM LOSSES SW =           0.0000

               TOTAL OUT =  1903360384.0000                 TOTAL OUT =           0.0000

                IN - OUT =           0.0000                  IN - OUT =           0.0000

     PERCENT DISCREPANCY =           0.00         PERCENT DISCREPANCY =           0.00



1
  VOLUMETRIC BUDGET FOR ENTIRE MODEL AT END OF TIME STEP   30, STRESS PERIOD  48
  ------------------------------------------------------------------------------

     CUMULATIVE VOLUMES      L**3       RATES FOR THIS TIME STEP      L**3/T
     ------------------                 ------------------------

           IN:                                      IN:
           ---                                      ---
             STORAGE     =  2426192896.0000               STORAGE     =           8.1422
       CONSTANT HEAD     =           0.0000         CONSTANT HEAD     =           0.0000
     HEAD DEP BOUNDS     =    35427480.0000       HEAD DEP BOUNDS     =           0.2889
      STREAM LEAKAGE     =  1518467840.0000        STREAM LEAKAGE     =          12.4757
        UZF RECHARGE     =   288068128.0000          UZF RECHARGE     =       3.1672E-04
               GW ET     =           0.0000                 GW ET     =           0.0000
     SURFACE LEAKAGE     =           0.0000       SURFACE LEAKAGE     =           0.0000
           AG WELLS      =           0.0000             AG WELLS      =           0.0000

                TOTAL IN =  4268156416.0000                  TOTAL IN =          20.9071

          OUT:                                     OUT:
          ----                                     ----
             STORAGE     =  1066606720.0000               STORAGE     =          11.3244
       CONSTANT HEAD     =           0.0000         CONSTANT HEAD     =           0.0000
     HEAD DEP BOUNDS     =    36068788.0000       HEAD DEP BOUNDS     =           0.2887
      STREAM LEAKAGE     =  1244569856.0000        STREAM LEAKAGE     =           9.2940
        UZF RECHARGE     =           0.0000          UZF RECHARGE     =           0.0000
               GW ET     =    17516984.0000                 GW ET     =           0.0000
     SURFACE LEAKAGE     =           0.0000       SURFACE LEAKAGE     =           0.0000
           AG WELLS      =  1903360384.0000             AG WELLS      =           0.0000

               TOTAL OUT =  4268122624.0000                 TOTAL OUT =          20.9071

                IN - OUT =       33792.0000                  IN - OUT =       1.7166E-05

     PERCENT DISCREPANCY =           0.00         PERCENT DISCREPANCY =           0.00






         TIME SUMMARY AT END OF TIME STEP   30 IN STRESS PERIOD   48
                    SECONDS     MINUTES      HOURS       DAYS        YEARS
                    -----------------------------------------------------------
   TIME STEP LENGTH  87667.      1461.1      24.352      1.0147     2.77799E-03
 STRESS PERIOD TIME 2.63000E+06  43833.      730.56      30.440     8.33397E-02
         TOTAL TIME 1.23695E+08 2.06158E+06  34360.      1431.7      3.9197    
1
1
                            STRESS PERIOD NO.   49, LENGTH =   2630000.    
                            -----------------------------------------------

                              NUMBER OF TIME STEPS =    30

                               MULTIPLIER FOR DELT =     1.000

                            INITIAL TIME STEP SIZE =   87666.66    

 REUSING NON-PARAMETER GHB CELLS FROM LAST STRESS PERIOD

      2 GHB CELLS

 REUSING STREAM SEGMENT DATA FROM LAST STRESS PERIOD



            AREAL INFILTRATION RATE
 READING ON UNIT   19 WITH FORMAT: (FREE)              

            1           2           3           4           5           6           7           8           9          10
 ........................................................................................................................
   1   1.0000E-10  2.0000E-10   0.000       0.000       0.000       0.000       0.000       0.000       0.000       0.000    
   2   2.0000E-10  1.0000E-10  2.0000E-10   0.000       0.000      8.0000E-10  8.0000E-10  5.0000E-10   0.000       0.000    
   3    0.000      5.0000E-10  1.0000E-10  1.0000E-10  8.0000E-10  8.0000E-10  5.0000E-10  5.0000E-10   0.000       0.000    
   4   8.0000E-10  5.0000E-10  1.0000E-10  1.0000E-10  1.0000E-10  1.0000E-10  1.0000E-10  1.0000E-10  2.0000E-10   0.000    
   5   8.0000E-10  5.0000E-10  1.0000E-10  1.0000E-10  1.0000E-10  1.0000E-10  1.0000E-10  1.0000E-10  1.0000E-10  1.0000E-10
   6   8.0000E-10  5.0000E-10  5.0000E-10  2.0000E-10  2.0000E-10  1.0000E-10  1.0000E-10  1.0000E-10  1.0000E-10  5.0000E-10
   7   8.0000E-10  5.0000E-10  5.0000E-10  2.0000E-10  2.0000E-10  1.0000E-10  1.0000E-10  2.0000E-10  2.0000E-10   0.000    
   8    0.000      5.0000E-10  5.0000E-10  2.0000E-10  2.0000E-10  1.0000E-10  1.0000E-10  2.0000E-10  5.0000E-10   0.000    
   9    0.000      5.0000E-10  5.0000E-10  2.0000E-10  2.0000E-10  1.0000E-10  1.0000E-10  2.0000E-10  5.0000E-10   0.000    
  10    0.000      5.0000E-10  5.0000E-10  2.0000E-10  2.0000E-10  1.0000E-10  1.0000E-10  2.0000E-10  5.0000E-10  8.0000E-10
  11    0.000      1.0000E-10  1.0000E-10  1.0000E-10  1.0000E-10  1.0000E-10  1.0000E-10  2.0000E-10  5.0000E-10   0.000    
  12   1.0000E-10  1.0000E-10  1.0000E-10  1.0000E-10  1.0000E-10  1.0000E-10  1.0000E-10  1.0000E-10  2.0000E-10   0.000    
  13   1.0000E-10  1.0000E-10  2.0000E-10  2.0000E-10  2.0000E-10  2.0000E-10  2.0000E-10  1.0000E-10  1.0000E-10   0.000    
  14    0.000      2.0000E-10  5.0000E-10  5.0000E-10  5.0000E-10  5.0000E-10  5.0000E-10  2.0000E-10  1.0000E-10   0.000    
  15    0.000       0.000      8.0000E-10  8.0000E-10  8.0000E-10  8.0000E-10   0.000       0.000       0.000       0.000    

                  ET RATE =  5.000000E-10

 USING ET EXTINCTION DEPTH FROM PREVIOUS STRESS PERIOD. CURRENT PERIOD IS:      49

 USING EXTINCTION WATER CONTENT FROM PREVIOUS STRESS PERIOD. CURRENT PERIOD IS:      49

 USING AIR ENTRY PRESSURE FROM PREVIOUS STRESS PERIOD. CURRENT PERIOD IS:      49

 USING ROOT PRESSURE HEAD FROM PREVIOUS STRESS PERIOD. CURRENT PERIOD IS:      49

 USING ROOT ACTIVITY FROM PREVIOUS STRESS PERIOD. CURRENT PERIOD IS:      49

 PROCESSING AG STRESS PERIOD DATA

 READING AG STRESS PERIOD DATA

 READING IRRIGATION WELL

 END PROCESSING AG STRESS PERIOD DATA OPTIONS
 
 SOLVING FOR HEAD 
                                                   Max.-Head-Change                         Max.-Flux-Residual
  Residual-Control   Outer-Iter.   Inner-Iter.     Column Row Layer    Maximum-Head-Change  Column Row Layer    Maximum-Flux-Residual          L2-NORM 
          0                 1           2             4    7     1       0.2485628969E-01       4    7    1         0.1304073307E+01      0.3223850684E+01
          0                 2           2             4    7     1      -0.2416540317E-02       4    7    1        -0.1303372590E+00      0.3222689976E+00
          0                 3           2             4    7     1       0.1644333518E-03       4    7    1         0.9116714136E-02      0.2254748893E-01
          0                 4           1             4    7     1      -0.6534750932E-05       4    7    1        -0.3724053090E-03      0.9214180756E-03

    ------------------------------------------------
       NWT REQUIRED            4 OUTER ITERATIONS 
       AND A TOTAL OF          7 INNER ITERATIONS.
    ------------------------------------------------

 NO OUTPUT CONTROL FOR STRESS PERIOD   49   TIME STEP    1
 
 SOLVING FOR HEAD 
                                                   Max.-Head-Change                         Max.-Flux-Residual
  Residual-Control   Outer-Iter.   Inner-Iter.     Column Row Layer    Maximum-Head-Change  Column Row Layer    Maximum-Flux-Residual          L2-NORM 
          0                 1           2             4    7     1       0.2461813273E-01       4    7    1         0.1291472444E+01      0.3197817452E+01
          0                 2           2             4    7     1      -0.2393386357E-02       4    7    1        -0.1290778339E+00      0.3196666927E+00
          0                 3           2             4    7     1       0.1628578363E-03       4    7    1         0.9028620525E-02      0.2236542980E-01
          0                 4           1             4    7     1      -0.6472138211E-05       4    7    1        -0.3688067741E-03      0.9139773493E-03

    ------------------------------------------------
       NWT REQUIRED            4 OUTER ITERATIONS 
       AND A TOTAL OF          7 INNER ITERATIONS.
    ------------------------------------------------

 NO OUTPUT CONTROL FOR STRESS PERIOD   49   TIME STEP    2
 
 SOLVING FOR HEAD 
                                                   Max.-Head-Change                         Max.-Flux-Residual
  Residual-Control   Outer-Iter.   Inner-Iter.     Column Row Layer    Maximum-Head-Change  Column Row Layer    Maximum-Flux-Residual          L2-NORM 
          0                 1           2             4    7     1       0.2438424366E-01       4    7    1         0.1279102508E+01      0.3172169902E+01
          0                 2           2             4    7     1      -0.2370647338E-02       4    7    1        -0.1278414899E+00      0.3171029621E+00
          0                 3           2             4    7     1       0.1613105557E-03       4    7    1         0.8942141409E-02      0.2218608769E-01
          0                 4           1             4    7     1      -0.6410646833E-05       4    7    1        -0.3652741757E-03      0.9066562953E-03

    ------------------------------------------------
       NWT REQUIRED            4 OUTER ITERATIONS 
       AND A TOTAL OF          7 INNER ITERATIONS.
    ------------------------------------------------

 NO OUTPUT CONTROL FOR STRESS PERIOD   49   TIME STEP    3
 
 SOLVING FOR HEAD 
                                                   Max.-Head-Change                         Max.-Flux-Residual
  Residual-Control   Outer-Iter.   Inner-Iter.     Column Row Layer    Maximum-Head-Change  Column Row Layer    Maximum-Flux-Residual          L2-NORM 
          0                 1           2             4    7     1       0.2415431516E-01       4    7    1         0.1266946577E+01      0.3146894054E+01
          0                 2           2             4    7     1      -0.2348293378E-02       4    7    1        -0.1266265356E+00      0.3145763513E+00
          0                 3           2             4    7     1       0.1597894769E-03       4    7    1         0.8857158471E-02      0.2200931057E-01
          0                 4           1             4    7     1      -0.6350197129E-05       4    7    1        -0.3618026963E-03      0.8994401225E-03

    ------------------------------------------------
       NWT REQUIRED            4 OUTER ITERATIONS 
       AND A TOTAL OF          7 INNER ITERATIONS.
    ------------------------------------------------

 NO OUTPUT CONTROL FOR STRESS PERIOD   49   TIME STEP    4
 
 SOLVING FOR HEAD 
                                                   Max.-Head-Change                         Max.-Flux-Residual
  Residual-Control   Outer-Iter.   Inner-Iter.     Column Row Layer    Maximum-Head-Change  Column Row Layer    Maximum-Flux-Residual          L2-NORM 
          0                 1           2             4    7     1       0.2392833141E-01       4    7    1         0.1255003271E+01      0.3121990445E+01
          0                 2           2             4    7     1      -0.2326322939E-02       4    7    1        -0.1254328332E+00      0.3120869920E+00
          0                 3           2             4    7     1       0.1582944950E-03       4    7    1         0.8773662050E-02      0.2183516396E-01
          0                 4           1             4    7     1      -0.6290784379E-05       4    7    1        -0.3583919547E-03      0.8923199689E-03

    ------------------------------------------------
       NWT REQUIRED            4 OUTER ITERATIONS 
       AND A TOTAL OF          7 INNER ITERATIONS.
    ------------------------------------------------

 NO OUTPUT CONTROL FOR STRESS PERIOD   49   TIME STEP    5
 
 SOLVING FOR HEAD 
                                                   Max.-Head-Change                         Max.-Flux-Residual
  Residual-Control   Outer-Iter.   Inner-Iter.     Column Row Layer    Maximum-Head-Change  Column Row Layer    Maximum-Flux-Residual          L2-NORM 
          0                 1           2             4    7     1       0.2370600243E-01       4    7    1         0.1243257215E+01      0.3097443418E+01
          0                 2           2             4    7     1      -0.2304707830E-02       4    7    1        -0.1242588458E+00      0.3096332670E+00
          0                 3           2             4    7     1       0.1568236920E-03       4    7    1         0.8691544683E-02      0.2166349150E-01
          0                 4           1             4    7     1      -0.6232332830E-05       4    7    1        -0.3550375318E-03      0.8853066860E-03

    ------------------------------------------------
       NWT REQUIRED            4 OUTER ITERATIONS 
       AND A TOTAL OF          7 INNER ITERATIONS.
    ------------------------------------------------

 NO OUTPUT CONTROL FOR STRESS PERIOD   49   TIME STEP    6
 
 SOLVING FOR HEAD 
                                                   Max.-Head-Change                         Max.-Flux-Residual
  Residual-Control   Outer-Iter.   Inner-Iter.     Column Row Layer    Maximum-Head-Change  Column Row Layer    Maximum-Flux-Residual          L2-NORM 
          0                 1           2             4    7     1       0.2348733152E-01       4    7    1         0.1231707930E+01      0.3073243316E+01
          0                 2           2             4    7     1      -0.2283448370E-02       4    7    1        -0.1231045257E+00      0.3072142244E+00
          0                 3           2             4    7     1       0.1553770899E-03       4    7    1         0.8610803014E-02      0.2149424435E-01
          0                 4           1             4    7     1      -0.6174843633E-05       4    7    1        -0.3517393352E-03      0.8783833950E-03

    ------------------------------------------------
       NWT REQUIRED            4 OUTER ITERATIONS 
       AND A TOTAL OF          7 INNER ITERATIONS.
    ------------------------------------------------

 NO OUTPUT CONTROL FOR STRESS PERIOD   49   TIME STEP    7
 
 SOLVING FOR HEAD 
                                                   Max.-Head-Change                         Max.-Flux-Residual
  Residual-Control   Outer-Iter.   Inner-Iter.     Column Row Layer    Maximum-Head-Change  Column Row Layer    Maximum-Flux-Residual          L2-NORM 
          0                 1           2             4    7     1       0.2327218513E-01       4    7    1         0.1220348310E+01      0.3049396298E+01
          0                 2           2             4    7     1      -0.2262531573E-02       4    7    1        -0.1219691625E+00      0.3048304862E+00
          0                 3           2             4    7     1       0.1539538043E-03       4    7    1         0.8531387325E-02      0.2132747985E-01
          0                 4           1             4    7     1      -0.6118280407E-05       4    7    1        -0.3484952904E-03      0.8715620933E-03

    ------------------------------------------------
       NWT REQUIRED            4 OUTER ITERATIONS 
       AND A TOTAL OF          7 INNER ITERATIONS.
    ------------------------------------------------

 NO OUTPUT CONTROL FOR STRESS PERIOD   49   TIME STEP    8
 
 SOLVING FOR HEAD 
                                                   Max.-Head-Change                         Max.-Flux-Residual
  Residual-Control   Outer-Iter.   Inner-Iter.     Column Row Layer    Maximum-Head-Change  Column Row Layer    Maximum-Flux-Residual          L2-NORM 
          0                 1           2             4    7     1       0.2306043781E-01       4    7    1         0.1209171430E+01      0.3025881846E+01
          0                 2           2             4    7     1      -0.2241945244E-02       4    7    1        -0.1208520639E+00      0.3024800005E+00
          0                 3           2             4    7     1       0.1525530054E-03       4    7    1         0.8453249214E-02      0.2116304228E-01
          0                 4           1             4    7     1      -0.6062610686E-05       4    7    1        -0.3453034237E-03      0.8648538843E-03

    ------------------------------------------------
       NWT REQUIRED            4 OUTER ITERATIONS 
       AND A TOTAL OF          7 INNER ITERATIONS.
    ------------------------------------------------

 NO OUTPUT CONTROL FOR STRESS PERIOD   49   TIME STEP    9
 
 SOLVING FOR HEAD 
                                                   Max.-Head-Change                         Max.-Flux-Residual
  Residual-Control   Outer-Iter.   Inner-Iter.     Column Row Layer    Maximum-Head-Change  Column Row Layer    Maximum-Flux-Residual          L2-NORM 
          0                 1           2             4    7     1       0.2285183822E-01       4    7    1         0.1198163504E+01      0.3002687314E+01
          0                 2           2             4    7     1      -0.2221664558E-02       4    7    1        -0.1197518523E+00      0.3001602117E+00
          0                 3           2             4    7     1       0.1511730044E-03       4    7    1         0.8376292321E-02      0.2100074133E-01
          0                 4           1             4    7     1      -0.6007768041E-05       4    7    1        -0.3421598262E-03      0.8582366836E-03

    ------------------------------------------------
       NWT REQUIRED            4 OUTER ITERATIONS 
       AND A TOTAL OF          7 INNER ITERATIONS.
    ------------------------------------------------

 NO OUTPUT CONTROL FOR STRESS PERIOD   49   TIME STEP   10
 
 SOLVING FOR HEAD 
                                                   Max.-Head-Change                         Max.-Flux-Residual
  Residual-Control   Outer-Iter.   Inner-Iter.     Column Row Layer    Maximum-Head-Change  Column Row Layer    Maximum-Flux-Residual          L2-NORM 
          0                 1           2             4    7     1       0.2264655508E-01       4    7    1         0.1187333364E+01      0.2979822495E+01
          0                 2           2             4    7     1      -0.2201707108E-02       4    7    1        -0.1186694102E+00      0.2978759853E+00
          0                 3           2             4    7     1       0.1498149980E-03       4    7    1         0.8300578400E-02      0.2084095344E-01
          0                 4           1             4    7     1      -0.5953799101E-05       4    7    1        -0.3390669867E-03      0.8517022716E-03

    ------------------------------------------------
       NWT REQUIRED            4 OUTER ITERATIONS 
       AND A TOTAL OF          7 INNER ITERATIONS.
    ------------------------------------------------

 NO OUTPUT CONTROL FOR STRESS PERIOD   49   TIME STEP   11
 
 SOLVING FOR HEAD 
                                                   Max.-Head-Change                         Max.-Flux-Residual
  Residual-Control   Outer-Iter.   Inner-Iter.     Column Row Layer    Maximum-Head-Change  Column Row Layer    Maximum-Flux-Residual          L2-NORM 
          0                 1           2             4    7     1       0.2244421087E-01       4    7    1         0.1176660571E+01      0.2957266933E+01
          0                 2           2             4    7     1      -0.2182034988E-02       4    7    1        -0.1176026948E+00      0.2956213574E+00
          0                 3           2             4    7     1       0.1484764072E-03       4    7    1         0.8225964490E-02      0.2068320461E-01
          0                 4           1             4    7     1      -0.5900601860E-05       4    7    1        -0.3360190981E-03      0.8453298492E-03

    ------------------------------------------------
       NWT REQUIRED            4 OUTER ITERATIONS 
       AND A TOTAL OF          7 INNER ITERATIONS.
    ------------------------------------------------

 NO OUTPUT CONTROL FOR STRESS PERIOD   49   TIME STEP   12
 
 SOLVING FOR HEAD 
                                                   Max.-Head-Change                         Max.-Flux-Residual
  Residual-Control   Outer-Iter.   Inner-Iter.     Column Row Layer    Maximum-Head-Change  Column Row Layer    Maximum-Flux-Residual          L2-NORM 
          0                 1           2             4    7     1       0.2224485171E-01       4    7    1         0.1166147458E+01      0.2935017770E+01
          0                 2           2             4    7     1      -0.2162653069E-02       4    7    1        -0.1165519392E+00      0.2933973567E+00
          0                 3           2             4    7     1       0.1471575632E-03       4    7    1         0.8152466953E-02      0.2052762338E-01
          0                 4           1             4    7     1      -0.5848189559E-05       4    7    1        -0.3330167933E-03      0.8388914529E-03

    ------------------------------------------------
       NWT REQUIRED            4 OUTER ITERATIONS 
       AND A TOTAL OF          7 INNER ITERATIONS.
    ------------------------------------------------

 NO OUTPUT CONTROL FOR STRESS PERIOD   49   TIME STEP   13
 
 SOLVING FOR HEAD 
                                                   Max.-Head-Change                         Max.-Flux-Residual
  Residual-Control   Outer-Iter.   Inner-Iter.     Column Row Layer    Maximum-Head-Change  Column Row Layer    Maximum-Flux-Residual          L2-NORM 
          0                 1           2             4    7     1       0.2204851847E-01       4    7    1         0.1155796397E+01      0.2913074503E+01
          0                 2           2             4    7     1      -0.2143611675E-02       4    7    1        -0.1155173806E+00      0.2912656108E+00
          0                 3           2             4    7     1       0.1458618893E-03       4    7    1         0.8080102241E-02      0.2037848431E-01
          0                 4           1             4    7     1      -0.5796697819E-05       4    7    1        -0.3300607796E-03      0.8327979270E-03

    ------------------------------------------------
       NWT REQUIRED            4 OUTER ITERATIONS 
       AND A TOTAL OF          7 INNER ITERATIONS.
    ------------------------------------------------

 NO OUTPUT CONTROL FOR STRESS PERIOD   49   TIME STEP   14
 
 SOLVING FOR HEAD 
                                                   Max.-Head-Change                         Max.-Flux-Residual
  Residual-Control   Outer-Iter.   Inner-Iter.     Column Row Layer    Maximum-Head-Change  Column Row Layer    Maximum-Flux-Residual          L2-NORM 
          0                 1           2             4    7     1       0.2185467802E-01       4    7    1         0.1145585190E+01      0.2891371196E+01
          0                 2           2             4    7     1      -0.2124719998E-02       4    7    1        -0.1144968009E+00      0.2890345060E+00
          0                 3           2             4    7     1       0.1445764068E-03       4    7    1         0.8008715606E-02      0.2022237278E-01
          0                 4           1             4    7     1      -0.5745611328E-05       4    7    1        -0.3271447108E-03      0.8264072421E-03

    ------------------------------------------------
       NWT REQUIRED            4 OUTER ITERATIONS 
       AND A TOTAL OF          7 INNER ITERATIONS.
    ------------------------------------------------

 NO OUTPUT CONTROL FOR STRESS PERIOD   49   TIME STEP   15
 
 SOLVING FOR HEAD 
                                                   Max.-Head-Change                         Max.-Flux-Residual
  Residual-Control   Outer-Iter.   Inner-Iter.     Column Row Layer    Maximum-Head-Change  Column Row Layer    Maximum-Flux-Residual          L2-NORM 
          0                 1           2             4    7     1       0.2166367700E-01       4    7    1         0.1135522732E+01      0.2869930676E+01
          0                 2           2             4    7     1      -0.2106150684E-02       4    7    1        -0.1134910884E+00      0.2868913776E+00
          0                 3           2             4    7     1       0.1433128573E-03       4    7    1         0.7938368740E-02      0.2007246422E-01
          0                 4           1             4    7     1      -0.5695396468E-05       4    7    1        -0.3242711323E-03      0.8202899332E-03

    ------------------------------------------------
       NWT REQUIRED            4 OUTER ITERATIONS 
       AND A TOTAL OF          7 INNER ITERATIONS.
    ------------------------------------------------

 NO OUTPUT CONTROL FOR STRESS PERIOD   49   TIME STEP   16
 
 SOLVING FOR HEAD 
                                                   Max.-Head-Change                         Max.-Flux-Residual
  Residual-Control   Outer-Iter.   Inner-Iter.     Column Row Layer    Maximum-Head-Change  Column Row Layer    Maximum-Flux-Residual          L2-NORM 
          0                 1           2             4    7     1       0.2147512414E-01       4    7    1         0.1125590459E+01      0.2848764150E+01
          0                 2           2             4    7     1      -0.2087819386E-02       4    7    1        -0.1124983874E+00      0.2847755949E+00
          0                 3           2             4    7     1       0.1420655040E-03       4    7    1         0.7868932011E-02      0.1992445397E-01
          0                 4           1             4    7     1      -0.5645825401E-05       4    7    1        -0.3214347280E-03      0.8142525467E-03

    ------------------------------------------------
       NWT REQUIRED            4 OUTER ITERATIONS 
       AND A TOTAL OF          7 INNER ITERATIONS.
    ------------------------------------------------

 NO OUTPUT CONTROL FOR STRESS PERIOD   49   TIME STEP   17
 
 SOLVING FOR HEAD 
                                                   Max.-Head-Change                         Max.-Flux-Residual
  Residual-Control   Outer-Iter.   Inner-Iter.     Column Row Layer    Maximum-Head-Change  Column Row Layer    Maximum-Flux-Residual          L2-NORM 
          0                 1           2             4    7     1       0.2128923000E-01       4    7    1         0.1115799684E+01      0.2827889549E+01
          0                 2           2             4    7     1      -0.2069746574E-02       4    7    1        -0.1115198291E+00      0.2826890259E+00
          0                 3           2             4    7     1       0.1408357389E-03       4    7    1         0.7800484530E-02      0.1977848487E-01
          0                 4           1             4    7     1      -0.5596952699E-05       4    7    1        -0.3186387075E-03      0.8082818980E-03

    ------------------------------------------------
       NWT REQUIRED            4 OUTER ITERATIONS 
       AND A TOTAL OF          7 INNER ITERATIONS.
    ------------------------------------------------

 NO OUTPUT CONTROL FOR STRESS PERIOD   49   TIME STEP   18
 
 SOLVING FOR HEAD 
                                                   Max.-Head-Change                         Max.-Flux-Residual
  Residual-Control   Outer-Iter.   Inner-Iter.     Column Row Layer    Maximum-Head-Change  Column Row Layer    Maximum-Flux-Residual          L2-NORM 
          0                 1           2             4    7     1       0.2110579221E-01       4    7    1         0.1106139476E+01      0.2807293818E+01
          0                 2           2             4    7     1      -0.2051912574E-02       4    7    1        -0.1105543206E+00      0.2806303190E+00
          0                 3           2             4    7     1       0.1396222248E-03       4    7    1         0.7732949883E-02      0.1963444908E-01
          0                 4           1             4    7     1      -0.5548726438E-05       4    7    1        -0.3158800114E-03      0.8024010297E-03

    ------------------------------------------------
       NWT REQUIRED            4 OUTER ITERATIONS 
       AND A TOTAL OF          7 INNER ITERATIONS.
    ------------------------------------------------

 NO OUTPUT CONTROL FOR STRESS PERIOD   49   TIME STEP   19
 
 SOLVING FOR HEAD 
                                                   Max.-Head-Change                         Max.-Flux-Residual
  Residual-Control   Outer-Iter.   Inner-Iter.     Column Row Layer    Maximum-Head-Change  Column Row Layer    Maximum-Flux-Residual          L2-NORM 
          0                 1           2             4    7     1       0.2092488853E-01       4    7    1         0.1096613908E+01      0.2786974866E+01
          0                 2           2             4    7     1      -0.2034324945E-02       4    7    1        -0.1096022692E+00      0.2785992861E+00
          0                 3           2             4    7     1       0.1384254743E-03       4    7    1         0.7666356496E-02      0.1949236744E-01
          0                 4           1             4    7     1      -0.5501166190E-05       4    7    1        -0.3131597450E-03      0.7965862859E-03

    ------------------------------------------------
       NWT REQUIRED            4 OUTER ITERATIONS 
       AND A TOTAL OF          7 INNER ITERATIONS.
    ------------------------------------------------

 NO OUTPUT CONTROL FOR STRESS PERIOD   49   TIME STEP   20
 
 SOLVING FOR HEAD 
                                                   Max.-Head-Change                         Max.-Flux-Residual
  Residual-Control   Outer-Iter.   Inner-Iter.     Column Row Layer    Maximum-Head-Change  Column Row Layer    Maximum-Flux-Residual          L2-NORM 
          0                 1           2             4    7     1       0.2074618299E-01       4    7    1         0.1087205161E+01      0.2766914760E+01
          0                 2           2             4    7     1      -0.2016951008E-02       4    7    1        -0.1086618938E+00      0.2765808623E+00
          0                 3           2             4    7     1       0.1372432648E-03       4    7    1         0.7600579826E-02      0.1935116447E-01
          0                 4           1             4    7     1      -0.5454183768E-05       4    7    1        -0.3104728485E-03      0.7908280524E-03

    ------------------------------------------------
       NWT REQUIRED            4 OUTER ITERATIONS 
       AND A TOTAL OF          7 INNER ITERATIONS.
    ------------------------------------------------

 NO OUTPUT CONTROL FOR STRESS PERIOD   49   TIME STEP   21
 
 SOLVING FOR HEAD 
                                                   Max.-Head-Change                         Max.-Flux-Residual
  Residual-Control   Outer-Iter.   Inner-Iter.     Column Row Layer    Maximum-Head-Change  Column Row Layer    Maximum-Flux-Residual          L2-NORM 
          0                 1           2             4    7     1       0.2056989921E-01       4    7    1         0.1077924952E+01      0.2747131697E+01
          0                 2           2             4    7     1      -0.1999812549E-02       4    7    1        -0.1077343656E+00      0.2746166939E+00
          0                 3           2             4    7     1       0.1360770783E-03       4    7    1         0.7535701785E-02      0.1921376116E-01
          0                 4           1             4    7     1      -0.5407838001E-05       4    7    1        -0.3078226491E-03      0.7852125844E-03

    ------------------------------------------------
       NWT REQUIRED            4 OUTER ITERATIONS 
       AND A TOTAL OF          7 INNER ITERATIONS.
    ------------------------------------------------

 NO OUTPUT CONTROL FOR STRESS PERIOD   49   TIME STEP   22
 
 SOLVING FOR HEAD 
                                                   Max.-Head-Change                         Max.-Flux-Residual
  Residual-Control   Outer-Iter.   Inner-Iter.     Column Row Layer    Maximum-Head-Change  Column Row Layer    Maximum-Flux-Residual          L2-NORM 
          0                 1           2             4    7     1       0.2039597670E-01       4    7    1         0.1068770306E+01      0.2727608687E+01
          0                 2           2             4    7     1      -0.1982903643E-02       4    7    1        -0.1068193872E+00      0.2726652177E+00
          0                 3           2             4    7     1       0.1349265120E-03       4    7    1         0.7471701574E-02      0.1907724484E-01
          0                 4           1             4    7     1      -0.5362113462E-05       4    7    1        -0.3052083212E-03      0.7796308734E-03

    ------------------------------------------------
       NWT REQUIRED            4 OUTER ITERATIONS 
       AND A TOTAL OF          7 INNER ITERATIONS.
    ------------------------------------------------

 NO OUTPUT CONTROL FOR STRESS PERIOD   49   TIME STEP   23
 
 SOLVING FOR HEAD 
                                                   Max.-Head-Change                         Max.-Flux-Residual
  Residual-Control   Outer-Iter.   Inner-Iter.     Column Row Layer    Maximum-Head-Change  Column Row Layer    Maximum-Flux-Residual          L2-NORM 
          0                 1           2             4    7     1       0.2022423154E-01       4    7    1         0.1059730802E+01      0.2708344453E+01
          0                 2           2             4    7     1      -0.1966206422E-02       4    7    1        -0.1059159170E+00      0.2707396332E+00
          0                 3           2             4    7     1       0.1337903494E-03       4    7    1         0.7408506323E-02      0.1894253851E-01
          0                 4           1             4    7     1      -0.5316961108E-05       4    7    1        -0.3026268614E-03      0.7741642277E-03

    ------------------------------------------------
       NWT REQUIRED            4 OUTER ITERATIONS 
       AND A TOTAL OF          7 INNER ITERATIONS.
    ------------------------------------------------

 NO OUTPUT CONTROL FOR STRESS PERIOD   49   TIME STEP   24
 
 SOLVING FOR HEAD 
                                                   Max.-Head-Change                         Max.-Flux-Residual
  Residual-Control   Outer-Iter.   Inner-Iter.     Column Row Layer    Maximum-Head-Change  Column Row Layer    Maximum-Flux-Residual          L2-NORM 
          0                 1           2             4    7     1       0.2005461251E-01       4    7    1         0.1050804190E+01      0.2689320764E+01
          0                 2           2             4    7     1      -0.1951243067E-02       4    7    1        -0.1051310898E+00      0.2688663581E+00
          0                 3           2             4    7     1       0.1327722209E-03       4    7    1         0.7353610823E-02      0.1881146914E-01
          0                 4           1             4    7     1      -0.5276503312E-05       4    7    1        -0.3003845468E-03      0.7687710954E-03

    ------------------------------------------------
       NWT REQUIRED            4 OUTER ITERATIONS 
       AND A TOTAL OF          7 INNER ITERATIONS.
    ------------------------------------------------

 NO OUTPUT CONTROL FOR STRESS PERIOD   49   TIME STEP   25
 
 SOLVING FOR HEAD 
                                                   Max.-Head-Change                         Max.-Flux-Residual
  Residual-Control   Outer-Iter.   Inner-Iter.     Column Row Layer    Maximum-Head-Change  Column Row Layer    Maximum-Flux-Residual          L2-NORM 
          0                 1           2             4    7     1       0.1988200674E-01       4    7    1         0.1041913701E+01      0.2670523981E+01
          0                 2           2             4    7     1      -0.1932936016E-02       4    7    1        -0.1041351941E+00      0.2669592205E+00
          0                 3           2             4    7     1       0.1315265146E-03       4    7    1         0.7283950421E-02      0.1867805093E-01
          0                 4           1             4    7     1      -0.5226997523E-05       4    7    1        -0.2975389921E-03      0.7633149082E-03

    ------------------------------------------------
       NWT REQUIRED            4 OUTER ITERATIONS 
       AND A TOTAL OF          7 INNER ITERATIONS.
    ------------------------------------------------

 NO OUTPUT CONTROL FOR STRESS PERIOD   49   TIME STEP   26
 
 SOLVING FOR HEAD 
                                                   Max.-Head-Change                         Max.-Flux-Residual
  Residual-Control   Outer-Iter.   Inner-Iter.     Column Row Layer    Maximum-Head-Change  Column Row Layer    Maximum-Flux-Residual          L2-NORM 
          0                 1           2             4    7     1       0.1971328842E-01       4    7    1         0.1033023811E+01      0.2651935006E+01
          0                 2           2             4    7     1      -0.1916533041E-02       4    7    1        -0.1032466755E+00      0.2651011413E+00
          0                 3           2             4    7     1       0.1304103740E-03       4    7    1         0.7221800976E-02      0.1854807528E-01
          0                 4           1             4    7     1      -0.5182640931E-05       4    7    1        -0.2950002599E-03      0.7581105469E-03

    ------------------------------------------------
       NWT REQUIRED            4 OUTER ITERATIONS 
       AND A TOTAL OF          7 INNER ITERATIONS.
    ------------------------------------------------

 NO OUTPUT CONTROL FOR STRESS PERIOD   49   TIME STEP   27
 
 SOLVING FOR HEAD 
                                                   Max.-Head-Change                         Max.-Flux-Residual
  Residual-Control   Outer-Iter.   Inner-Iter.     Column Row Layer    Maximum-Head-Change  Column Row Layer    Maximum-Flux-Residual          L2-NORM 
          0                 1           2             4    7     1       0.1954682748E-01       4    7    1         0.1024254132E+01      0.2633580840E+01
          0                 2           2             4    7     1      -0.1900349533E-02       4    7    1        -0.1023701718E+00      0.2632665284E+00
          0                 3           2             4    7     1       0.1293091665E-03       4    7    1         0.7160491926E-02      0.1841973263E-01
          0                 4           1             4    7     1      -0.5138877592E-05       4    7    1        -0.2924958517E-03      0.7527537728E-03

    ------------------------------------------------
       NWT REQUIRED            4 OUTER ITERATIONS 
       AND A TOTAL OF          7 INNER ITERATIONS.
    ------------------------------------------------

 NO OUTPUT CONTROL FOR STRESS PERIOD   49   TIME STEP   28
 
 SOLVING FOR HEAD 
                                                   Max.-Head-Change                         Max.-Flux-Residual
  Residual-Control   Outer-Iter.   Inner-Iter.     Column Row Layer    Maximum-Head-Change  Column Row Layer    Maximum-Flux-Residual          L2-NORM 
          0                 1           2             4    7     1       0.1938270150E-01       4    7    1         0.1015608780E+01      0.2615465616E+01
          0                 2           2             4    7     1      -0.1884393037E-02       4    7    1        -0.1015060946E+00      0.2614557974E+00
          0                 3           2             4    7     1       0.1282234065E-03       4    7    1         0.7100052106E-02      0.1829305971E-01
          0                 4           1             4    7     1      -0.5095728227E-05       4    7    1        -0.2900269537E-03      0.7475971151E-03

    ------------------------------------------------
       NWT REQUIRED            4 OUTER ITERATIONS 
       AND A TOTAL OF          7 INNER ITERATIONS.
    ------------------------------------------------

 NO OUTPUT CONTROL FOR STRESS PERIOD   49   TIME STEP   29
 
 SOLVING FOR HEAD 
                                                   Max.-Head-Change                         Max.-Flux-Residual
  Residual-Control   Outer-Iter.   Inner-Iter.     Column Row Layer    Maximum-Head-Change  Column Row Layer    Maximum-Flux-Residual          L2-NORM 
          0                 1           2             4    7     1       0.1922084814E-01       4    7    1         0.1007084492E+01      0.2597576668E+01
          0                 2           2             4    7     1      -0.1868657489E-02       4    7    1        -0.1006541175E+00      0.2596677018E+00
          0                 3           2             4    7     1       0.1271526802E-03       4    7    1         0.7040458619E-02      0.1816799407E-01
          0                 4           1             4    7     1      -0.5053175915E-05       4    7    1        -0.2875926079E-03      0.7424948852E-03

    ------------------------------------------------
       NWT REQUIRED            4 OUTER ITERATIONS 
       AND A TOTAL OF          7 INNER ITERATIONS.
    ------------------------------------------------

 NO OUTPUT CONTROL FOR STRESS PERIOD   49   TIME STEP   30



 STREAM LISTING     PERIOD     49   STEP       30

 LAYER ROW COL. STREAM  RCH.  FLOW INTO     FLOW TO   FLOW OUT OF   OVRLND.     DIRECT     STREAM       STREAM     STREAM     STREAM   STREAMBED  STREAMBED
                SEG.NO.  NO.  STRM. RCH.    AQUIFER    STRM. RCH.    RUNOFF     PRECIP       ET          HEAD       DEPTH      WIDTH   CONDCTNC.   GRADIENT

   1    1    1     1     1    1.9000E+01  2.1427E-01   1.8786E+01  0.000E+00  0.000E+00  0.000E+00  1.09413E+03  1.082E+00  1.166E+01  5.249E-02  1.361E+00
   1    2    2     1     2    1.8786E+01  3.3054E-01   1.8455E+01  0.000E+00  0.000E+00  0.000E+00  1.08914E+03  1.077E+00  1.158E+01  8.107E-02  1.359E+00
   1    3    3     1     3    1.8455E+01  2.8064E-01   1.8175E+01  0.000E+00  0.000E+00  0.000E+00  1.08349E+03  1.072E+00  1.149E+01  6.892E-02  1.357E+00
   1    3    4     1     4    1.8175E+01  2.5740E-01   1.7917E+01  0.000E+00  0.000E+00  0.000E+00  1.07848E+03  1.068E+00  1.140E+01  6.328E-02  1.356E+00
   1    4    5     2     1    1.5917E+01  3.0542E-01   1.5612E+01  0.000E+00  0.000E+00  0.000E+00  1.07285E+03  9.157E-01  1.200E+01  7.800E-02  1.305E+00
   1    5    6     2     2    1.5612E+01  2.3438E-01   1.5377E+01  0.000E+00  0.000E+00  0.000E+00  1.06742E+03  9.063E-01  1.200E+01  6.000E-02  1.302E+00
   1    6    6     2     3    1.5377E+01  2.3388E-01   1.5143E+01  0.000E+00  0.000E+00  0.000E+00  1.06269E+03  8.980E-01  1.200E+01  6.000E-02  1.299E+00
   1    7    6     2     4    1.5143E+01  2.3338E-01   1.4910E+01  0.000E+00  0.000E+00  0.000E+00  1.05797E+03  8.897E-01  1.200E+01  6.000E-02  1.297E+00
   1    8    6     2     5    1.4910E+01  2.3289E-01   1.4677E+01  0.000E+00  0.000E+00  0.000E+00  1.05324E+03  8.814E-01  1.200E+01  6.000E-02  1.294E+00
   1    3    5     3     1    2.0000E+00  2.8252E-01   1.7175E+00  0.000E+00  0.000E+00  0.000E+00  1.07555E+03  1.909E+00  9.636E+00  7.227E-02  1.955E+00
   1    3    6     3     2    1.7175E+00  2.4905E-01   1.4684E+00  0.000E+00  0.000E+00  0.000E+00  1.07264E+03  1.727E+00  8.909E+00  6.682E-02  1.864E+00
   1    3    7     3     3    1.4684E+00  1.9718E-01   1.2712E+00  0.000E+00  0.000E+00  0.000E+00  1.06987E+03  1.555E+00  8.218E+00  5.547E-02  1.777E+00
   1    4    8     3     4    1.2712E+00  2.2567E-01   1.0456E+00  0.000E+00  0.000E+00  0.000E+00  1.06682E+03  1.364E+00  7.455E+00  6.709E-02  1.682E+00
   1    5    8     3     5    1.0456E+00  1.5790E-01   8.8768E-01  0.000E+00  0.000E+00  0.000E+00  1.06362E+03  1.164E+00  6.655E+00  4.991E-02  1.582E+00
   1    6    8     3     6    8.8768E-01  5.5980E-02   8.3170E-01  0.000E+00  0.000E+00  0.000E+00  1.06158E+03  1.036E+00  6.145E+00  1.844E-02  1.518E+00
   1    5   10     4     1    1.0000E+01  9.0919E-02   9.9091E+00  0.000E+00  0.000E+00  0.000E+00  1.07836E+03  6.368E-01  1.000E+01  2.500E-02  1.212E+00
   1    5    9     4     2    9.9091E+00  1.8158E-01   9.7275E+00  0.000E+00  0.000E+00  0.000E+00  1.07154E+03  6.315E-01  1.000E+01  5.000E-02  1.211E+00
   1    6    8     4     3    9.7275E+00  1.2689E-01   9.6006E+00  0.000E+00  0.000E+00  0.000E+00  1.06381E+03  6.256E-01  1.000E+01  3.500E-02  1.209E+00
   1    6    8     5     1    1.0432E+01  2.2686E-01   1.0205E+01  0.000E+00  0.000E+00  0.000E+00  1.05868E+03  6.790E-01  1.542E+01  6.166E-02  1.226E+00
   1    7    7     5     2    1.0205E+01  2.7894E-01   9.9265E+00  0.000E+00  0.000E+00  0.000E+00  1.05417E+03  6.732E-01  1.519E+01  7.594E-02  1.224E+00
   1    8    7     5     3    9.9265E+00  1.9221E-01   9.7343E+00  0.000E+00  0.000E+00  0.000E+00  1.04992E+03  6.676E-01  1.497E+01  5.241E-02  1.223E+00
   1    8    6     5     4    9.7343E+00  1.3577E-01   9.5985E+00  0.000E+00  0.000E+00  0.000E+00  1.04691E+03  6.637E-01  1.482E+01  3.706E-02  1.221E+00
   1    9    6     6     1    2.4276E+01  2.5176E-01   2.4024E+01  0.000E+00  0.000E+00  0.000E+00  1.04392E+03  1.196E+00  1.200E+01  6.000E-02  1.399E+00
   1   10    7     6     2    2.4024E+01  2.5131E-01   2.3773E+01  0.000E+00  0.000E+00  0.000E+00  1.03937E+03  1.188E+00  1.200E+01  6.000E-02  1.396E+00
   1   11    7     6     3    2.3773E+01  2.5086E-01   2.3522E+01  0.000E+00  0.000E+00  0.000E+00  1.03482E+03  1.181E+00  1.200E+01  6.000E-02  1.394E+00
   1   12    7     6     4    2.3522E+01  2.5041E-01   2.3271E+01  0.000E+00  0.000E+00  0.000E+00  1.03026E+03  1.173E+00  1.200E+01  6.000E-02  1.391E+00
   1   13    7     6     5    2.3271E+01  1.3113E-02   2.3258E+01  0.000E+00  0.000E+00  0.000E+00  1.02708E+03  1.169E+00  1.200E+01  2.400E-02  1.821E-01
   1   14    9     7     1    1.5000E+02  1.3842E+00   1.4862E+02  0.000E+00  0.000E+00  0.000E+00  1.03987E+03  2.288E+00  5.529E+01  5.593E-01  8.250E-01
   1   13    8     7     2    1.4862E+02  2.0029E+00   1.4661E+02  0.000E+00  0.000E+00  0.000E+00  1.03478E+03  2.279E+00  5.525E+01  6.147E-01  1.086E+00
   1   13    7     7     3    1.4661E+02  1.7620E+00   1.4485E+02  0.000E+00  0.000E+00  0.000E+00  1.02969E+03  2.269E+00  5.521E+01  5.584E-01  1.052E+00
   1   13    6     8     1    1.6811E+02  1.1953E+00   1.6691E+02  0.000E+00  0.000E+00  0.000E+00  1.02481E+03  2.936E+00  4.257E+01  4.338E-01  9.185E-01
   1   13    5     8     2    1.6691E+02  4.3145E-01   1.6648E+02  0.000E+00  0.000E+00  0.000E+00  1.01856E+03  2.931E+00  4.249E+01  4.330E-01  3.321E-01
   1   13    4     8     3    1.6648E+02 -1.5688E+00   1.6805E+02  0.000E+00  0.000E+00  0.000E+00  1.01231E+03  2.934E+00  4.255E+01  4.336E+00 -1.206E-01
   1   13    3     8     4    1.6805E+02 -3.2320E+00   1.7128E+02  0.000E+00  0.000E+00  0.000E+00  1.00608E+03  2.950E+00  4.278E+01  4.359E+00 -2.472E-01
   1   13    2     8     5    1.7128E+02 -2.4741E+00   1.7376E+02  0.000E+00  0.000E+00  0.000E+00  9.99844E+02  2.969E+00  4.304E+01  4.386E+00 -1.880E-01
   1   13    1     8     6    1.7376E+02 -1.9553E+00   1.7571E+02  0.000E+00  0.000E+00  0.000E+00  9.94858E+02  2.983E+00  4.325E+01  2.644E+00 -2.465E-01





UNSATURATED ZONE PACKAGE VOLUMETRIC BUDGET FOR  TIME STEP    30 STRESS PERIOD   49
  ------------------------------------------------------------------------------



     CUMULATIVE VOLUMES      L**3       RATES FOR THIS TIME STEP      L**3/T
     ------------------                 ------------------------

           IN:                                      IN:
           ---                                      ---
        INFILTRATION =  2010423159.7998          INFILTRATION =           0.8475

          OUT:                                     OUT:
          ----                                     ----
              UZF ET =  1721764294.6384                UZF ET =           0.7500
        UZF RECHARGE =   288068795.2268          UZF RECHARGE =           0.0002

            IN - OUT =      590069.9346              IN - OUT =       9.7251E-02

          STORAGE:                                 STORAGE:
          --------                                 --------
      STORAGE CHANGE =      590041.8087        STORAGE CHANGE =       9.7251E-02

 PERCENT DISCREPANCY IS DIFFERENCE BETWEEN IN-OUT MINUS CHANGE IN STORAGE
 DIVIDED BY THE AVERAGE OF IN AND OUT TIMES 100

 PERCENT DISCREPANCY =           0.00     PERCENT DISCREPANCY =           0.00






1
  VOLUMETRIC BUDGET FOR AGRICULTURAL FIELDS AT  END OF TIME STEP   30, STRESS PERIOD  49
  ------------------------------------------------------------------------------

     CUMULATIVE VOLUMES      L**3       RATES FOR THIS TIME STEP      L**3/T
     ------------------                 ------------------------

           IN:                                      IN:
           ---                                      ---
               AG WELLS  =  1903360384.0000                 AG WELLS  =           0.0000
      DIVERSION SEGMENTS =           0.0000        DIVERSION SEGMENTS =           0.0000
           GW IRRIGATION =           0.0000             GW IRRIGATION =           0.0000
           SW IRRIGATION =           0.0000             SW IRRIGATION =           0.0000
        SYSTEM LOSSES GW =           0.0000          SYSTEM LOSSES GW =           0.0000
        SYSTEM LOSSES SW =           0.0000          SYSTEM LOSSES SW =           0.0000

                TOTAL IN =  1903360384.0000                  TOTAL IN =           0.0000

          OUT:                                     OUT:
          ----                                     ----
               AG WELLS  =           0.0000                 AG WELLS  =           0.0000
      DIVERSION SEGMENTS =           0.0000        DIVERSION SEGMENTS =           0.0000
           GW IRRIGATION =  1903360384.0000             GW IRRIGATION =           0.0000
           SW IRRIGATION =           0.0000             SW IRRIGATION =           0.0000
        SYSTEM LOSSES GW =           0.0000          SYSTEM LOSSES GW =           0.0000
        SYSTEM LOSSES SW =           0.0000          SYSTEM LOSSES SW =           0.0000

               TOTAL OUT =  1903360384.0000                 TOTAL OUT =           0.0000

                IN - OUT =           0.0000                  IN - OUT =           0.0000

     PERCENT DISCREPANCY =           0.00         PERCENT DISCREPANCY =           0.00



1
  VOLUMETRIC BUDGET FOR ENTIRE MODEL AT END OF TIME STEP   30, STRESS PERIOD  49
  ------------------------------------------------------------------------------

     CUMULATIVE VOLUMES      L**3       RATES FOR THIS TIME STEP      L**3/T
     ------------------                 ------------------------

           IN:                                      IN:
           ---                                      ---
             STORAGE     =  2445174784.0000               STORAGE     =           6.4850
       CONSTANT HEAD     =           0.0000         CONSTANT HEAD     =           0.0000
     HEAD DEP BOUNDS     =    36187524.0000       HEAD DEP BOUNDS     =           0.2891
      STREAM LEAKAGE     =  1551335424.0000        STREAM LEAKAGE     =          12.5176
        UZF RECHARGE     =   288069088.0000          UZF RECHARGE     =       2.4875E-04
               GW ET     =           0.0000                 GW ET     =           0.0000
     SURFACE LEAKAGE     =           0.0000       SURFACE LEAKAGE     =           0.0000
           AG WELLS      =           0.0000             AG WELLS      =           0.0000

                TOTAL IN =  4320766976.0000                  TOTAL IN =          19.2919

          OUT:                                     OUT:
          ----                                     ----
             STORAGE     =  1094102912.0000               STORAGE     =           9.7730
       CONSTANT HEAD     =           0.0000         CONSTANT HEAD     =           0.0000
     HEAD DEP BOUNDS     =    36828088.0000       HEAD DEP BOUNDS     =           0.2887
      STREAM LEAKAGE     =  1268924544.0000        STREAM LEAKAGE     =           9.2302
        UZF RECHARGE     =           0.0000          UZF RECHARGE     =           0.0000
               GW ET     =    17516984.0000                 GW ET     =           0.0000
     SURFACE LEAKAGE     =           0.0000       SURFACE LEAKAGE     =           0.0000
           AG WELLS      =  1903360384.0000             AG WELLS      =           0.0000

               TOTAL OUT =  4320733184.0000                 TOTAL OUT =          19.2919

                IN - OUT =       33792.0000                  IN - OUT =       1.5259E-05

     PERCENT DISCREPANCY =           0.00         PERCENT DISCREPANCY =           0.00






         TIME SUMMARY AT END OF TIME STEP   30 IN STRESS PERIOD   49
                    SECONDS     MINUTES      HOURS       DAYS        YEARS
                    -----------------------------------------------------------
   TIME STEP LENGTH  87667.      1461.1      24.352      1.0147     2.77799E-03
 STRESS PERIOD TIME 2.63000E+06  43833.      730.56      30.440     8.33397E-02
         TOTAL TIME 1.26325E+08 2.10542E+06  35090.      1462.1      4.0030    
1


 Run end date and time (yyyy/mm/dd hh:mm:ss): 2020/09/24 12:30:00
 Elapsed run time:  3.923 Seconds

